--------------------------------------------------------------------------------
 Model Input Parameters:  ROMS/TOMS version 3.7  
                          Thursday - November 30, 2017 -  9:47:51 AM
 --------------------------------------------------------------------------------

 Dog-bone Nesting Test Case: Composite Grids

 Operating system : CYGWIN
 CPU/hardware     : x86_64
 Compiler system  : gfortran
 Compiler command : /usr/bin/gfortran
 Compiler flags   : -frepack-arrays -O3 -ffast-math -fno-bounds-check -ffree-form -ffree-line-length-none -ffree-form -ffree-line-length-none

 SVN Root URL  : https:://myroms.org/svn/src
 SVN Revision  : Unversioned directory

 Local Root    : /home/hadfield/ROMS/roms-trunk-mgh
 Header Dir    : /home/hadfield/ROMS/roms-test-mgh/dogbone/Composite
 Header file   : dogbone.h
 Analytical Dir: /home/hadfield/ROMS/roms-test-mgh/dogbone/Composite

 Resolution, Grid 01: 0021x0015x010,  Parallel Threads:  1,  Tiling: 001x001


 Physical Parameters, Grid: 01
 =============================

       1800  ntimes            Number of timesteps for 3-D equations.
      6.000  dt                Timestep size (s) for 3-D equations.
         20  ndtfast           Number of timesteps for 2-D equations between
                                 each 3D timestep.
          1  ERstr             Starting ensemble/perturbation run number.
          1  ERend             Ending ensemble/perturbation run number.
          0  nrrec             Number of restart records to read from disk.
          T  LcycleRST         Switch to recycle time-records in restart file.
         30  nRST              Number of timesteps between the writing of data
                                 into restart fields.
          1  ninfo             Number of timesteps between print of information
                                 to standard output.
          T  ldefout           Switch to create a new output NetCDF file(s).
         30  nHIS              Number of timesteps between the writing fields
                                 into history file.
          0  nQCK              Number of timesteps between the writing fields
                                 into quicksave file.
          1  ntsAVG            Starting timestep for the accumulation of output
                                 time-averaged data.
         30  nAVG              Number of timesteps between the writing of
                                 time-averaged data into averages file.
          F  LuvSponge         Turning OFF sponge on horizontal momentum.
          F  LtracerSponge(01) Turning OFF sponge on tracer 01: temp
          F  LtracerSponge(02) Turning OFF sponge on tracer 02: salt
 1.0000E-06  Akt_bak(01)       Background vertical mixing coefficient (m2/s)
                                 for tracer 01: temp
 1.0000E-06  Akt_bak(02)       Background vertical mixing coefficient (m2/s)
                                 for tracer 02: salt
 1.0000E-05  Akv_bak           Background vertical mixing coefficient (m2/s)
                                 for momentum.
 5.0000E-06  Akk_bak           Background vertical mixing coefficient (m2/s)
                                 for turbulent energy.
 5.0000E-06  Akp_bak           Background vertical mixing coefficient (m2/s)
                                 for turbulent generic statistical field.
      3.000  gls_p             GLS stability exponent.
      1.500  gls_m             GLS turbulent kinetic energy exponent.
     -1.000  gls_n             GLS turbulent length scale exponent.
 7.6000E-06  gls_Kmin          GLS minimum value of turbulent kinetic energy.
 1.0000E-12  gls_Pmin          GLS minimum value of dissipation.
 5.4770E-01  gls_cmu0          GLS stability coefficient.
 1.4400E+00  gls_c1            GLS shear production coefficient.
 1.9200E+00  gls_c2            GLS dissipation coefficient.
-4.0000E-01  gls_c3m           GLS stable buoyancy production coefficient.
 1.0000E+00  gls_c3p           GLS unstable buoyancy production coefficient.
 1.0000E+00  gls_sigk          GLS constant Schmidt number for TKE.
 1.3000E+00  gls_sigp          GLS constant Schmidt number for PSI.
   1400.000  charnok_alpha     Charnok factor for Zos calculation.
      0.500  zos_hsig_alpha    Factor for Zos calculation using Hsig(Awave).
      0.250  sz_alpha          Factor for Wave dissipation surface tke flux .
    100.000  crgban_cw         Factor for Craig/Banner surface tke flux.
 3.0000E-04  rdrg              Linear bottom drag coefficient (m/s).
 3.0000E-03  rdrg2             Quadratic bottom drag coefficient.
 2.0000E-02  Zob               Bottom roughness (m).
 2.0000E-02  Zos               Surface roughness (m).
          2  Vtransform        S-coordinate transformation equation.
          4  Vstretching       S-coordinate stretching function.
 0.0000E+00  theta_s           S-coordinate surface control parameter.
 0.0000E+00  theta_b           S-coordinate bottom  control parameter.
 1.0000E+16  Tcline            S-coordinate surface/bottom layer width (m) used
                                 in vertical coordinate stretching.
   1025.000  rho0              Mean density (kg/m3) for Boussinesq approximation.
      0.000  dstart            Time-stamp assigned to model initialization (days).
       0.00  time_ref          Reference time for units attribute (yyyymmdd.dd)
 0.0000E+00  Tnudg(01)         Nudging/relaxation time scale (days)
                                 for tracer 01: temp
 0.0000E+00  Tnudg(02)         Nudging/relaxation time scale (days)
                                 for tracer 02: salt
 0.0000E+00  Znudg             Nudging/relaxation time scale (days)
                                 for free-surface.
 0.0000E+00  M2nudg            Nudging/relaxation time scale (days)
                                 for 2D momentum.
 0.0000E+00  M3nudg            Nudging/relaxation time scale (days)
                                 for 3D momentum.
 0.0000E+00  obcfac            Factor between passive and active
                                 open boundary conditions.
          F  VolCons(1)        NLM western  edge boundary volume conservation.
          F  VolCons(2)        NLM southern edge boundary volume conservation.
          F  VolCons(3)        NLM eastern  edge boundary volume conservation.
          F  VolCons(4)        NLM northern edge boundary volume conservation.
     10.000  T0                Background potential temperature (C) constant.
     35.000  S0                Background salinity (PSU) constant.
   1027.000  R0                Background density (kg/m3) used in linear Equation
                                 of State.
 1.7000E-04  Tcoef             Thermal expansion coefficient (1/Celsius).
 7.6000E-04  Scoef             Saline contraction coefficient (1/PSU).
      1.000  gamma2            Slipperiness variable: free-slip (1.0) or 
                                                      no-slip (-1.0).
          F  LuvSrc            Turning OFF momentum point Sources/Sinks.
          F  LwSrc             Turning OFF volume influx point Sources/Sinks.
          F  LtracerSrc(01)    Turning OFF point Sources/Sinks on tracer 01: temp
          F  LtracerSrc(02)    Turning OFF point Sources/Sinks on tracer 02: salt
          F  LsshCLM           Turning OFF processing of SSH climatology.
          F  Lm2CLM            Turning OFF processing of 2D momentum climatology.
          F  Lm3CLM            Turning OFF processing of 3D momentum climatology.
          F  LtracerCLM(01)    Turning OFF processing of climatology tracer 01: temp
          F  LtracerCLM(02)    Turning OFF processing of climatology tracer 02: salt
          F  LnudgeM2CLM       Turning OFF nudging of 2D momentum climatology.
          F  LnudgeM3CLM       Turning OFF nudging of 3D momentum climatology.
          F  LnudgeTCLM(01)    Turning OFF nudging of climatology tracer 01: temp
          F  LnudgeTCLM(02)    Turning OFF nudging of climatology tracer 02: salt

          T  Hout(idFsur)      Write out free-surface.
          T  Hout(idUbar)      Write out 2D U-momentum component.
          T  Hout(idVbar)      Write out 2D V-momentum component.
          T  Hout(idUvel)      Write out 3D U-momentum component.
          T  Hout(idVvel)      Write out 3D V-momentum component.
          T  Hout(idWvel)      Write out W-momentum component.
          T  Hout(idOvel)      Write out omega vertical velocity.
          T  Hout(idTvar)      Write out tracer 01: temp
          T  Hout(idTvar)      Write out tracer 02: salt

          T  Aout(idFsur)      Write out averaged free-surface.
          T  Aout(idUbar)      Write out averaged 2D U-momentum component.
          T  Aout(idVbar)      Write out averaged 2D V-momentum component.
          T  Aout(idUvel)      Write out averaged 3D U-momentum component.
          T  Aout(idVvel)      Write out averaged 3D V-momentum component.
          T  Aout(idOvel)      Write out averaged omega vertical velocity.
          T  Aout(idTvar)      Write out averaged tracer 01: temp
          T  Aout(idTvar)      Write out averaged tracer 02: salt

 Output/Input Files:

             Output Restart File:  dogbone_rst_left.nc
             Output History File:  dogbone_his_left.nc
            Output Averages File:  dogbone_avg_left.nc
                 Input Grid File:  ../Data/dogbone_grd_left.nc
  Nesting grid connectivity File:  ../Data/dogbone_ngc_composite.nc
    Input Nonlinear Initial File:  ../Data/dogbone_ini_left.nc

 Resolution, Grid 02: 0021x0015x010,  Parallel Threads:  1,  Tiling: 001x001


 Physical Parameters, Grid: 02
 =============================

       1800  ntimes            Number of timesteps for 3-D equations.
      6.000  dt                Timestep size (s) for 3-D equations.
         20  ndtfast           Number of timesteps for 2-D equations between
                                 each 3D timestep.
          1  ERstr             Starting ensemble/perturbation run number.
          1  ERend             Ending ensemble/perturbation run number.
          0  nrrec             Number of restart records to read from disk.
          T  LcycleRST         Switch to recycle time-records in restart file.
         30  nRST              Number of timesteps between the writing of data
                                 into restart fields.
          1  ninfo             Number of timesteps between print of information
                                 to standard output.
          T  ldefout           Switch to create a new output NetCDF file(s).
         30  nHIS              Number of timesteps between the writing fields
                                 into history file.
          0  nQCK              Number of timesteps between the writing fields
                                 into quicksave file.
          1  ntsAVG            Starting timestep for the accumulation of output
                                 time-averaged data.
         30  nAVG              Number of timesteps between the writing of
                                 time-averaged data into averages file.
          F  LuvSponge         Turning OFF sponge on horizontal momentum.
          F  LtracerSponge(01) Turning OFF sponge on tracer 01: temp
          F  LtracerSponge(02) Turning OFF sponge on tracer 02: salt
 1.0000E-06  Akt_bak(01)       Background vertical mixing coefficient (m2/s)
                                 for tracer 01: temp
 1.0000E-06  Akt_bak(02)       Background vertical mixing coefficient (m2/s)
                                 for tracer 02: salt
 1.0000E-05  Akv_bak           Background vertical mixing coefficient (m2/s)
                                 for momentum.
 5.0000E-06  Akk_bak           Background vertical mixing coefficient (m2/s)
                                 for turbulent energy.
 5.0000E-06  Akp_bak           Background vertical mixing coefficient (m2/s)
                                 for turbulent generic statistical field.
      3.000  gls_p             GLS stability exponent.
      1.500  gls_m             GLS turbulent kinetic energy exponent.
     -1.000  gls_n             GLS turbulent length scale exponent.
 7.6000E-06  gls_Kmin          GLS minimum value of turbulent kinetic energy.
 1.0000E-12  gls_Pmin          GLS minimum value of dissipation.
 5.4770E-01  gls_cmu0          GLS stability coefficient.
 1.4400E+00  gls_c1            GLS shear production coefficient.
 1.9200E+00  gls_c2            GLS dissipation coefficient.
-4.0000E-01  gls_c3m           GLS stable buoyancy production coefficient.
 1.0000E+00  gls_c3p           GLS unstable buoyancy production coefficient.
 1.0000E+00  gls_sigk          GLS constant Schmidt number for TKE.
 1.3000E+00  gls_sigp          GLS constant Schmidt number for PSI.
   1400.000  charnok_alpha     Charnok factor for Zos calculation.
      0.500  zos_hsig_alpha    Factor for Zos calculation using Hsig(Awave).
      0.250  sz_alpha          Factor for Wave dissipation surface tke flux .
    100.000  crgban_cw         Factor for Craig/Banner surface tke flux.
 3.0000E-04  rdrg              Linear bottom drag coefficient (m/s).
 3.0000E-03  rdrg2             Quadratic bottom drag coefficient.
 2.0000E-02  Zob               Bottom roughness (m).
 2.0000E-02  Zos               Surface roughness (m).
          2  Vtransform        S-coordinate transformation equation.
          4  Vstretching       S-coordinate stretching function.
 0.0000E+00  theta_s           S-coordinate surface control parameter.
 0.0000E+00  theta_b           S-coordinate bottom  control parameter.
 1.0000E+16  Tcline            S-coordinate surface/bottom layer width (m) used
                                 in vertical coordinate stretching.
   1025.000  rho0              Mean density (kg/m3) for Boussinesq approximation.
      0.000  dstart            Time-stamp assigned to model initialization (days).
       0.00  time_ref          Reference time for units attribute (yyyymmdd.dd)
 0.0000E+00  Tnudg(01)         Nudging/relaxation time scale (days)
                                 for tracer 01: temp
 0.0000E+00  Tnudg(02)         Nudging/relaxation time scale (days)
                                 for tracer 02: salt
 0.0000E+00  Znudg             Nudging/relaxation time scale (days)
                                 for free-surface.
 0.0000E+00  M2nudg            Nudging/relaxation time scale (days)
                                 for 2D momentum.
 0.0000E+00  M3nudg            Nudging/relaxation time scale (days)
                                 for 3D momentum.
 0.0000E+00  obcfac            Factor between passive and active
                                 open boundary conditions.
          F  VolCons(1)        NLM western  edge boundary volume conservation.
          F  VolCons(2)        NLM southern edge boundary volume conservation.
          F  VolCons(3)        NLM eastern  edge boundary volume conservation.
          F  VolCons(4)        NLM northern edge boundary volume conservation.
     10.000  T0                Background potential temperature (C) constant.
     35.000  S0                Background salinity (PSU) constant.
   1027.000  R0                Background density (kg/m3) used in linear Equation
                                 of State.
 1.7000E-04  Tcoef             Thermal expansion coefficient (1/Celsius).
 7.6000E-04  Scoef             Saline contraction coefficient (1/PSU).
      1.000  gamma2            Slipperiness variable: free-slip (1.0) or 
                                                      no-slip (-1.0).
          F  LuvSrc            Turning OFF momentum point Sources/Sinks.
          F  LwSrc             Turning OFF volume influx point Sources/Sinks.
          F  LtracerSrc(01)    Turning OFF point Sources/Sinks on tracer 01: temp
          F  LtracerSrc(02)    Turning OFF point Sources/Sinks on tracer 02: salt
          F  LsshCLM           Turning OFF processing of SSH climatology.
          F  Lm2CLM            Turning OFF processing of 2D momentum climatology.
          F  Lm3CLM            Turning OFF processing of 3D momentum climatology.
          F  LtracerCLM(01)    Turning OFF processing of climatology tracer 01: temp
          F  LtracerCLM(02)    Turning OFF processing of climatology tracer 02: salt
          F  LnudgeM2CLM       Turning OFF nudging of 2D momentum climatology.
          F  LnudgeM3CLM       Turning OFF nudging of 3D momentum climatology.
          F  LnudgeTCLM(01)    Turning OFF nudging of climatology tracer 01: temp
          F  LnudgeTCLM(02)    Turning OFF nudging of climatology tracer 02: salt

          T  Hout(idFsur)      Write out free-surface.
          T  Hout(idUbar)      Write out 2D U-momentum component.
          T  Hout(idVbar)      Write out 2D V-momentum component.
          T  Hout(idUvel)      Write out 3D U-momentum component.
          T  Hout(idVvel)      Write out 3D V-momentum component.
          T  Hout(idWvel)      Write out W-momentum component.
          T  Hout(idOvel)      Write out omega vertical velocity.
          T  Hout(idTvar)      Write out tracer 01: temp
          T  Hout(idTvar)      Write out tracer 02: salt

          T  Aout(idFsur)      Write out averaged free-surface.
          T  Aout(idUbar)      Write out averaged 2D U-momentum component.
          T  Aout(idVbar)      Write out averaged 2D V-momentum component.
          T  Aout(idUvel)      Write out averaged 3D U-momentum component.
          T  Aout(idVvel)      Write out averaged 3D V-momentum component.
          T  Aout(idOvel)      Write out averaged omega vertical velocity.
          T  Aout(idTvar)      Write out averaged tracer 01: temp
          T  Aout(idTvar)      Write out averaged tracer 02: salt

 Output/Input Files:

             Output Restart File:  dogbone_rst_right.nc
             Output History File:  dogbone_his_right.nc
            Output Averages File:  dogbone_avg_right.nc
                 Input Grid File:  ../Data/dogbone_grd_right.nc
  Nesting grid connectivity File:  ../Data/dogbone_ngc_composite.nc
    Input Nonlinear Initial File:  ../Data/dogbone_ini_right.nc

 Tile partition information for Grid 01:  0021x0015x0010  tiling: 001x001

     tile     Istr     Iend     Jstr     Jend     Npts

        0        1       21        1       15     3150

 Tile partition information for Grid 02:  0021x0015x0010  tiling: 001x001

     tile     Istr     Iend     Jstr     Jend     Npts

        0        1       21        1       15     3150

 Tile minimum and maximum fractional coordinates for Grid 01:
   (interior points only)

     tile     Xmin     Xmax     Ymin     Ymax     grid

        0     0.50    23.50     0.50    15.50  RHO-points

        0     0.00    23.00     0.50    15.50    U-points

        0     0.50    23.50     0.00    15.00    V-points

 Tile minimum and maximum fractional coordinates for Grid 02:
   (interior points only)

     tile     Xmin     Xmax     Ymin     Ymax     grid

        0    -2.50    21.50     0.50    15.50  RHO-points

        0    -3.00    21.00     0.50    15.50    U-points

        0    -2.50    21.50     0.00    15.00    V-points

 Lateral Boundary Conditions: NLM
 ============================

 Variable               Grid  West Edge    South Edge   East Edge    North Edge
 ---------              ----  ----------   ----------   ----------   ----------

 zeta                     1   Closed       Closed       Closed       Closed
                          2   Closed       Closed       Closed       Closed

 ubar                     1   Closed       Closed       Closed       Closed
                          2   Closed       Closed       Closed       Closed

 vbar                     1   Closed       Closed       Closed       Closed
                          2   Closed       Closed       Closed       Closed

 u                        1   Closed       Closed       Closed       Closed
                          2   Closed       Closed       Closed       Closed

 v                        1   Closed       Closed       Closed       Closed
                          2   Closed       Closed       Closed       Closed

 temp                     1   Closed       Closed       Closed       Closed
                          2   Closed       Closed       Closed       Closed

 salt                     1   Closed       Closed       Closed       Closed
                          2   Closed       Closed       Closed       Closed

 tke                      1   Closed       Closed       Closed       Closed
                          2   Closed       Closed       Closed       Closed

 Activated C-preprocessing Options:

 DOGBONE             Dog-bone Nesting Test Case: Composite Grids
 ANA_BSFLUX          Analytical kinematic bottom salinity flux.
 ANA_BTFLUX          Analytical kinematic bottom temperature flux.
 ANA_SMFLUX          Analytical kinematic surface momentum flux.
 ANA_SSFLUX          Analytical kinematic surface salinity flux.
 ANA_STFLUX          Analytical kinematic surface temperature flux.
 ASSUMED_SHAPE       Using assumed-shape arrays.
 AVERAGES            Writing out time-averaged nonlinear model fields.
 DJ_GRADPS           Parabolic Splines density Jacobian (Shchepetkin, 2002).
 DOUBLE_PRECISION    Double precision arithmetic.
 GLS_MIXING          Generic Length-Scale turbulence closure.
 KANTHA_CLAYSON      Kantha and Clayson stability function formulation.
 MASKING             Land/Sea masking.
 NESTING             Nesting grids: Composite and Refinement.
 NONLINEAR           Nonlinear Model.
 !NONLIN_EOS         Linear Equation of State for seawater.
 N2S2_HORAVG         Horizontal smoothing of buoyancy and shear.
 !ONE_WAY            Two-way nesting in refinement grids.
 OUT_DOUBLE          Double precision output fields in NetCDF files.
 POWER_LAW           Power-law shape time-averaging barotropic filter.
 PROFILE             Time profiling activated .
 K_GSCHEME           Third-order upstream advection of TKE fields.
 !RST_SINGLE         Double precision fields in restart NetCDF file.
 SALINITY            Using salinity.
 SOLVE3D             Solving 3D Primitive Equations.
 SPLINES_VDIFF       Parabolic Spline Reconstruction for Vertical Diffusion.
 SPLINES_VVISC       Parabolic Spline Reconstruction for Vertical Viscosity.
 TS_U3HADVECTION     Third-order upstream horizontal advection of tracers.
 TS_C4VADVECTION     Fourth-order centered vertical advection of tracers.
 UV_ADV              Advection of momentum.
 UV_U3HADVECTION     Third-order upstream horizontal advection of 3D momentum.
 UV_C4VADVECTION     Fourth-order centered vertical advection of momentum.
 UV_QDRAG            Quadratic bottom stress.
 VAR_RHO_2D          Variable density barotropic mode.

 Process Information:

 Thread #  0 (pid=       0) is active.

 INITIAL: Configuring and initializing forward nonlinear model ...
 *******

    GET_GRID    - angle between XI-axis and EAST: angler
                   (Grid = 01, File: ../Data/dogbone_grd_left.nc)
                   (Min =  0.00000000E+00 Max =  0.00000000E+00)
    GET_GRID    - reciprocal XI-grid spacing: pm
                   (Grid = 01, File: ../Data/dogbone_grd_left.nc)
                   (Min =  5.00000000E-03 Max =  5.00000000E-03)
    GET_GRID    - reciprocal ETA-grid spacing: pn
                   (Grid = 01, File: ../Data/dogbone_grd_left.nc)
                   (Min =  2.00000000E-02 Max =  2.00000000E-02)
    GET_GRID    - Coriolis parameter at RHO-points: f
                   (Grid = 01, File: ../Data/dogbone_grd_left.nc)
                   (Min =  1.45800000E-04 Max =  1.45800000E-04)
    GET_GRID    - bathymetry at RHO-points: h
                   (Grid = 01, File: ../Data/dogbone_grd_left.nc)
                   (Min =  1.00000000E+01 Max =  1.00000000E+01)
    GET_GRID    - x-location of RHO-points: x-rho
                   (Grid = 01, File: ../Data/dogbone_grd_left.nc)
                   (Min = -1.00000000E+02 Max =  4.30000000E+03)
    GET_GRID    - y-location of RHO-points: y_rho
                   (Grid = 01, File: ../Data/dogbone_grd_left.nc)
                   (Min = -2.50000000E+01 Max =  7.75000000E+02)
    GET_GRID    - x-location of PSI-points: x_psi
                   (Grid = 01, File: ../Data/dogbone_grd_left.nc)
                   (Min =  0.00000000E+00 Max =  4.20000000E+03)
    GET_GRID    - y-location of PSI-points: y-psi
                   (Grid = 01, File: ../Data/dogbone_grd_left.nc)
                   (Min =  0.00000000E+00 Max =  7.50000000E+02)
    GET_GRID    - x-location of U-points: x_u
                   (Grid = 01, File: ../Data/dogbone_grd_left.nc)
                   (Min =  0.00000000E+00 Max =  4.20000000E+03)
    GET_GRID    - y-location of U-points: y_u
                   (Grid = 01, File: ../Data/dogbone_grd_left.nc)
                   (Min = -2.50000000E+01 Max =  7.75000000E+02)
    GET_GRID    - x-location of V-points: x_v
                   (Grid = 01, File: ../Data/dogbone_grd_left.nc)
                   (Min = -1.00000000E+02 Max =  4.30000000E+03)
    GET_GRID    - y-location of V-points: y_v
                   (Grid = 01, File: ../Data/dogbone_grd_left.nc)
                   (Min =  0.00000000E+00 Max =  7.50000000E+02)
    GET_GRID    - mask on RHO-points: mask_rho
                   (Grid = 01, File: ../Data/dogbone_grd_left.nc)
                   (Min =  0.00000000E+00 Max =  1.00000000E+00)
    GET_GRID    - mask on PSI-points: mask_psi
                   (Grid = 01, File: ../Data/dogbone_grd_left.nc)
                   (Min =  0.00000000E+00 Max =  1.00000000E+00)
    GET_GRID    - mask on U-points: mask_u
                   (Grid = 01, File: ../Data/dogbone_grd_left.nc)
                   (Min =  0.00000000E+00 Max =  1.00000000E+00)
    GET_GRID    - mask on V-points: mask_v
                   (Grid = 01, File: ../Data/dogbone_grd_left.nc)
                   (Min =  0.00000000E+00 Max =  1.00000000E+00)

    GET_GRID    - angle between XI-axis and EAST: angler
                   (Grid = 02, File: ../Data/dogbone_grd_right.nc)
                   (Min =  0.00000000E+00 Max =  0.00000000E+00)
    GET_GRID    - reciprocal XI-grid spacing: pm
                   (Grid = 02, File: ../Data/dogbone_grd_right.nc)
                   (Min =  5.00000000E-03 Max =  5.00000000E-03)
    GET_GRID    - reciprocal ETA-grid spacing: pn
                   (Grid = 02, File: ../Data/dogbone_grd_right.nc)
                   (Min =  2.00000000E-02 Max =  2.00000000E-02)
    GET_GRID    - Coriolis parameter at RHO-points: f
                   (Grid = 02, File: ../Data/dogbone_grd_right.nc)
                   (Min =  1.45800000E-04 Max =  1.45800000E-04)
    GET_GRID    - bathymetry at RHO-points: h
                   (Grid = 02, File: ../Data/dogbone_grd_right.nc)
                   (Min =  1.00000000E+01 Max =  1.00000000E+01)
    GET_GRID    - x-location of RHO-points: x-rho
                   (Grid = 02, File: ../Data/dogbone_grd_right.nc)
                   (Min =  4.10000000E+03 Max =  8.50000000E+03)
    GET_GRID    - y-location of RHO-points: y_rho
                   (Grid = 02, File: ../Data/dogbone_grd_right.nc)
                   (Min = -2.50000000E+01 Max =  7.75000000E+02)
    GET_GRID    - x-location of PSI-points: x_psi
                   (Grid = 02, File: ../Data/dogbone_grd_right.nc)
                   (Min =  4.20000000E+03 Max =  8.40000000E+03)
    GET_GRID    - y-location of PSI-points: y-psi
                   (Grid = 02, File: ../Data/dogbone_grd_right.nc)
                   (Min =  0.00000000E+00 Max =  7.50000000E+02)
    GET_GRID    - x-location of U-points: x_u
                   (Grid = 02, File: ../Data/dogbone_grd_right.nc)
                   (Min =  4.20000000E+03 Max =  8.40000000E+03)
    GET_GRID    - y-location of U-points: y_u
                   (Grid = 02, File: ../Data/dogbone_grd_right.nc)
                   (Min = -2.50000000E+01 Max =  7.75000000E+02)
    GET_GRID    - x-location of V-points: x_v
                   (Grid = 02, File: ../Data/dogbone_grd_right.nc)
                   (Min =  4.10000000E+03 Max =  8.50000000E+03)
    GET_GRID    - y-location of V-points: y_v
                   (Grid = 02, File: ../Data/dogbone_grd_right.nc)
                   (Min =  0.00000000E+00 Max =  7.50000000E+02)
    GET_GRID    - mask on RHO-points: mask_rho
                   (Grid = 02, File: ../Data/dogbone_grd_right.nc)
                   (Min =  0.00000000E+00 Max =  1.00000000E+00)
    GET_GRID    - mask on PSI-points: mask_psi
                   (Grid = 02, File: ../Data/dogbone_grd_right.nc)
                   (Min =  0.00000000E+00 Max =  1.00000000E+00)
    GET_GRID    - mask on U-points: mask_u
                   (Grid = 02, File: ../Data/dogbone_grd_right.nc)
                   (Min =  0.00000000E+00 Max =  1.00000000E+00)
    GET_GRID    - mask on V-points: mask_v
                   (Grid = 02, File: ../Data/dogbone_grd_right.nc)
                   (Min =  0.00000000E+00 Max =  1.00000000E+00)

 Vertical S-coordinate System, Grid 01:

 level   S-coord     Cs-curve   Z   at hmin       at hc    half way     at hmax

    10   0.0000000   0.0000000        0.000       0.000       0.000       0.000
     9  -0.1000000  -0.0100000       -1.000      -1.000      -1.000      -1.000
     8  -0.2000000  -0.0400000       -2.000      -2.000      -2.000      -2.000
     7  -0.3000000  -0.0900000       -3.000      -3.000      -3.000      -3.000
     6  -0.4000000  -0.1600000       -4.000      -4.000      -4.000      -4.000
     5  -0.5000000  -0.2500000       -5.000      -5.000      -5.000      -5.000
     4  -0.6000000  -0.3600000       -6.000      -6.000      -6.000      -6.000
     3  -0.7000000  -0.4900000       -7.000      -7.000      -7.000      -7.000
     2  -0.8000000  -0.6400000       -8.000      -8.000      -8.000      -8.000
     1  -0.9000000  -0.8100000       -9.000      -9.000      -9.000      -9.000
     0  -1.0000000  -1.0000000      -10.000     -10.000     -10.000     -10.000

 Vertical S-coordinate System, Grid 02:

 level   S-coord     Cs-curve   Z   at hmin       at hc    half way     at hmax

    10   0.0000000   0.0000000        0.000       0.000       0.000       0.000
     9  -0.1000000  -0.0100000       -1.000      -1.000      -1.000      -1.000
     8  -0.2000000  -0.0400000       -2.000      -2.000      -2.000      -2.000
     7  -0.3000000  -0.0900000       -3.000      -3.000      -3.000      -3.000
     6  -0.4000000  -0.1600000       -4.000      -4.000      -4.000      -4.000
     5  -0.5000000  -0.2500000       -5.000      -5.000      -5.000      -5.000
     4  -0.6000000  -0.3600000       -6.000      -6.000      -6.000      -6.000
     3  -0.7000000  -0.4900000       -7.000      -7.000      -7.000      -7.000
     2  -0.8000000  -0.6400000       -8.000      -8.000      -8.000      -8.000
     1  -0.9000000  -0.8100000       -9.000      -9.000      -9.000      -9.000
     0  -1.0000000  -1.0000000      -10.000     -10.000     -10.000     -10.000

 Time Splitting Weights for Grid 01:    ndtfast =  20    nfast =  29
 ==================================

    Primary            Secondary            Accumulated to Current Step

  1-0.0009651193358779 0.0500000000000000-0.0009651193358779 0.0500000000000000
  2-0.0013488780126037 0.0500482559667939-0.0023139973484816 0.1000482559667939
  3-0.0011514592651644 0.0501156998674241-0.0034654566136460 0.1501639558342180
  4-0.0003735756740661 0.0501732728306823-0.0038390322877122 0.2003372286649003
  5 0.0009829200513762 0.0501919516143856-0.0028561122363360 0.2505291802792859
  6 0.0029141799764308 0.0501428056118168 0.0000580677400949 0.3006719858911027
  7 0.0054132615310267 0.0499970966129953 0.0054713292711215 0.3506690825040980
  8 0.0084687837865133 0.0497264335364439 0.0139401130576348 0.4003955160405419
  9 0.0120633394191050 0.0493029943471183 0.0260034524767398 0.4496985103876601
 10 0.0161716623600090 0.0486998273761630 0.0421751148367488 0.4983983377638231
 11 0.0207585511322367 0.0478912442581626 0.0629336659689855 0.5462895820219857
 12 0.0257765478740990 0.0468533167015507 0.0887102138430846 0.5931428987235364
 13 0.0311633730493853 0.0455644893078458 0.1198735868924699 0.6387073880313822
 14 0.0368391158442262 0.0440063206553765 0.1567127027366961 0.6827137086867586
 15 0.0427031802506397 0.0421643648631652 0.1994158829873358 0.7248780735499238
 16 0.0486309868367616 0.0400292058506332 0.2480468698240974 0.7649072794005570
 17 0.0544704302037592 0.0375976565087951 0.3025173000278565 0.8025049359093521
 18 0.0600380921294286 0.0348741349986072 0.3625553921572851 0.8373790709079593
 19 0.0651152103984763 0.0318722303921357 0.4276706025557614 0.8692513013000950
 20 0.0694434033194839 0.0286164698722119 0.4971140058752453 0.8978677711723069
 21 0.0727201499285570 0.0251442997062377 0.5698341558038023 0.9230120708785446
 22 0.0745940258796570 0.0215082922098099 0.6444281816834592 0.9445203630883545
 23 0.0746596950216179 0.0177785909158270 0.7190878767050771 0.9622989540041815
 24 0.0724526566618460 0.0140456061647461 0.7915405333669231 0.9763445601689277
 25 0.0674437485167025 0.0104229733316538 0.8589842818836255 0.9867675335005816
 26 0.0590334053485720 0.0070507859058187 0.9180176872321975 0.9938183194064003
 27 0.0465456732896125 0.0040991156383901 0.9645633605218099 0.9979174350447905
 28 0.0292219798521905 0.0017718319739095 0.9937853403740003 0.9996892670187000
 29 0.0062146596259993 0.0003107329813000 0.9999999999999997 1.0000000000000000

 ndtfast, nfast =   20  29   nfast/ndtfast =  1.45000

 Centers of gravity and integrals (values must be 1, 1, approx 1/2, 1, 1):

    1.000000000000 1.060707743385 0.530353871693 1.000000000000 1.000000000000

 Power filter parameters, Fgamma, gamma =  0.28400   0.14200

 Time Splitting Weights for Grid 02:    ndtfast =  20    nfast =  29
 ==================================

    Primary            Secondary            Accumulated to Current Step

  1-0.0009651193358779 0.0500000000000000-0.0009651193358779 0.0500000000000000
  2-0.0013488780126037 0.0500482559667939-0.0023139973484816 0.1000482559667939
  3-0.0011514592651644 0.0501156998674241-0.0034654566136460 0.1501639558342180
  4-0.0003735756740661 0.0501732728306823-0.0038390322877122 0.2003372286649003
  5 0.0009829200513762 0.0501919516143856-0.0028561122363360 0.2505291802792859
  6 0.0029141799764308 0.0501428056118168 0.0000580677400949 0.3006719858911027
  7 0.0054132615310267 0.0499970966129953 0.0054713292711215 0.3506690825040980
  8 0.0084687837865133 0.0497264335364439 0.0139401130576348 0.4003955160405419
  9 0.0120633394191050 0.0493029943471183 0.0260034524767398 0.4496985103876601
 10 0.0161716623600090 0.0486998273761630 0.0421751148367488 0.4983983377638231
 11 0.0207585511322367 0.0478912442581626 0.0629336659689855 0.5462895820219857
 12 0.0257765478740990 0.0468533167015507 0.0887102138430846 0.5931428987235364
 13 0.0311633730493853 0.0455644893078458 0.1198735868924699 0.6387073880313822
 14 0.0368391158442262 0.0440063206553765 0.1567127027366961 0.6827137086867586
 15 0.0427031802506397 0.0421643648631652 0.1994158829873358 0.7248780735499238
 16 0.0486309868367616 0.0400292058506332 0.2480468698240974 0.7649072794005570
 17 0.0544704302037592 0.0375976565087951 0.3025173000278565 0.8025049359093521
 18 0.0600380921294286 0.0348741349986072 0.3625553921572851 0.8373790709079593
 19 0.0651152103984763 0.0318722303921357 0.4276706025557614 0.8692513013000950
 20 0.0694434033194839 0.0286164698722119 0.4971140058752453 0.8978677711723069
 21 0.0727201499285570 0.0251442997062377 0.5698341558038023 0.9230120708785446
 22 0.0745940258796570 0.0215082922098099 0.6444281816834592 0.9445203630883545
 23 0.0746596950216179 0.0177785909158270 0.7190878767050771 0.9622989540041815
 24 0.0724526566618460 0.0140456061647461 0.7915405333669231 0.9763445601689277
 25 0.0674437485167025 0.0104229733316538 0.8589842818836255 0.9867675335005816
 26 0.0590334053485720 0.0070507859058187 0.9180176872321975 0.9938183194064003
 27 0.0465456732896125 0.0040991156383901 0.9645633605218099 0.9979174350447905
 28 0.0292219798521905 0.0017718319739095 0.9937853403740003 0.9996892670187000
 29 0.0062146596259993 0.0003107329813000 0.9999999999999997 1.0000000000000000

 ndtfast, nfast =   20  29   nfast/ndtfast =  1.45000

 Centers of gravity and integrals (values must be 1, 1, approx 1/2, 1, 1):

    1.000000000000 1.060707743385 0.530353871693 1.000000000000 1.000000000000

 Power filter parameters, Fgamma, gamma =  0.28400   0.14200

 Metrics information for Grid 01:
 ===============================

 Minimum X-grid spacing, DXmin =  2.00000000E-01 km
 Maximum X-grid spacing, DXmax =  2.00000000E-01 km
 Minimum Y-grid spacing, DYmin =  5.00000000E-02 km
 Maximum Y-grid spacing, DYmax =  5.00000000E-02 km
 Minimum Z-grid spacing, DZmin =  1.00000000E+00 m
 Maximum Z-grid spacing, DZmax =  1.00000000E+00 m

 Minimum barotropic Courant Number =  6.12562242E-02
 Maximum barotropic Courant Number =  6.12562242E-02
 Maximum Coriolis   Courant Number =  8.74800000E-04


 Metrics information for Grid 02:
 ===============================

 Minimum X-grid spacing, DXmin =  2.00000000E-01 km
 Maximum X-grid spacing, DXmax =  2.00000000E-01 km
 Minimum Y-grid spacing, DYmin =  5.00000000E-02 km
 Maximum Y-grid spacing, DYmax =  5.00000000E-02 km
 Minimum Z-grid spacing, DZmin =  1.00000000E+00 m
 Maximum Z-grid spacing, DZmax =  1.00000000E+00 m

 Minimum barotropic Courant Number =  6.12562242E-02
 Maximum barotropic Courant Number =  6.12562242E-02
 Maximum Coriolis   Courant Number =  8.74800000E-04


 NLM: GET_STATE - Reading state initial conditions,                0001-01-01 00:00:00.00
                   (Grid 01, t = 0.0000, File: dogbone_ini_left.nc, Rec=0001, Index=1)
                - free-surface
                   (Min =  0.00000000E+00 Max =  1.50000000E+00)
                - vertically integrated u-momentum component
                   (Min =  0.00000000E+00 Max =  0.00000000E+00)
                - vertically integrated v-momentum component
                   (Min =  0.00000000E+00 Max =  0.00000000E+00)
                - u-momentum component
                   (Min =  0.00000000E+00 Max =  0.00000000E+00)
                - v-momentum component
                   (Min =  0.00000000E+00 Max =  0.00000000E+00)
                - potential temperature
                   (Min =  5.00000000E+00 Max =  1.00000000E+01)
                - salinity
                   (Min =  3.50000000E+01 Max =  3.50000000E+01)

 NLM: GET_STATE - Reading state initial conditions,                0001-01-01 00:00:00.00
                   (Grid 02, t = 0.0000, File: dogbone_ini_right.nc, Rec=0001, Index=1)
                - free-surface
                   (Min =  0.00000000E+00 Max =  0.00000000E+00)
                - vertically integrated u-momentum component
                   (Min =  0.00000000E+00 Max =  0.00000000E+00)
                - vertically integrated v-momentum component
                   (Min =  0.00000000E+00 Max =  0.00000000E+00)
                - u-momentum component
                   (Min =  0.00000000E+00 Max =  0.00000000E+00)
                - v-momentum component
                   (Min =  0.00000000E+00 Max =  0.00000000E+00)
                - potential temperature
                   (Min =  1.00000000E+01 Max =  1.00000000E+01)
                - salinity
                   (Min =  3.50000000E+01 Max =  3.50000000E+01)

 Basin information for Grid 01:

 Maximum grid stiffness ratios:  rx0 =   0.000000E+00 (Beckmann and Haidvogel)
                                 rx1 =   8.881784E-16 (Haney)

 Initial domain volumes:  TotVolume =  2.4500000000E+07 m3
                         MinCellVol =  1.0000000000E+04 m3
                         MaxCellVol =  1.0000000000E+04 m3
                            Max/Min =  1.0000000000E+00

 Basin information for Grid 02:

 Maximum grid stiffness ratios:  rx0 =   0.000000E+00 (Beckmann and Haidvogel)
                                 rx1 =   8.881784E-16 (Haney)

 Initial domain volumes:  TotVolume =  2.4500000000E+07 m3
                         MinCellVol =  1.0000000000E+04 m3
                         MaxCellVol =  1.0000000000E+04 m3
                            Max/Min =  1.0000000000E+00

 NL ROMS/TOMS: started time-stepping: (Grid: 01 TimeSteps: 000000000001 - 000000001800)
 NL ROMS/TOMS: started time-stepping: (Grid: 02 TimeSteps: 000000000001 - 000000001800)


 TIME-STEP YYYY-MM-DD hh:mm:ss.ss  KINETIC_ENRG   POTEN_ENRG    TOTAL_ENRG    NET_VOLUME  Grid
                     C => (i,j,k)       Cu            Cv            Cw         Max Speed

         0 0001-01-01 00:00:00.00  0.000000E+00  4.989505E+01  4.989505E+01  3.206250E+07  01
                       (00,00,00)  0.000000E+00  0.000000E+00  0.000000E+00  0.000000E+00
         0 0001-01-01 00:00:00.00  0.000000E+00  4.885859E+01  4.885859E+01  3.150000E+07  02
                       (00,00,00)  0.000000E+00  0.000000E+00  0.000000E+00  0.000000E+00
      DEF_HIS     - creating  history      file, Grid 01: dogbone_his_left.nc
      WRT_HIS     - wrote history     fields (Index=1,1) in record = 0000001               01
      DEF_AVG     - creating  average      file, Grid 01: dogbone_avg_left.nc
      DEF_RST   - creating restart file: dogbone_rst_left.nc
      DEF_HIS     - creating  history      file, Grid 02: dogbone_his_right.nc
      WRT_HIS     - wrote history     fields (Index=1,1) in record = 0000001               02
      DEF_AVG     - creating  average      file, Grid 02: dogbone_avg_right.nc
      DEF_RST   - creating restart file: dogbone_rst_right.nc
         1 0001-01-01 00:00:06.00  6.709032E-04  4.989363E+01  4.989430E+01  3.206250E+07  01
                       (05,01,01)  2.230237E-03  8.142445-101  0.000000E+00  7.434332E-02
         1 0001-01-01 00:00:06.00  3.785765-104  4.885859E+01  4.885859E+01  3.150000E+07  02
                       (01,06,10)  4.633832E-53  3.536923E-62  0.000000E+00  2.184048E-51
         2 0001-01-01 00:00:12.00  2.586325E-03  4.988972E+01  4.989231E+01  3.206250E+07  01
                       (06,01,10)  2.243361E-03  4.451504E-74  2.060240E-02  1.475223E-01
         2 0001-01-01 00:00:12.00  1.653785E-87  4.885859E+01  4.885859E+01  3.150000E+07  02
                       (01,06,10)  9.688356E-45  2.111189E-52  8.801369E-52  4.564840E-43
         3 0001-01-01 00:00:18.00  5.505532E-03  4.988383E+01  4.988933E+01  3.206250E+07  01
                       (01,01,10)  2.839484E-03  7.906601E-22  3.931208E-02  2.209154E-01
         3 0001-01-01 00:00:18.00  1.798989E-77  4.885859E+01  4.885859E+01  3.150000E+07  02
                       (01,06,10)  1.011018E-39  1.656904E-46  1.838937E-43  4.761047E-38
         4 0001-01-01 00:00:24.00  9.142688E-03  4.987650E+01  4.988564E+01  3.206250E+07  01
                       (01,03,10)  3.380690E-03  7.222237E-37  5.426643E-02  2.932445E-01
         4 0001-01-01 00:00:24.00  2.838234E-70  4.885859E+01  4.885859E+01  3.150000E+07  02
                       (01,06,10)  4.018144E-36  2.303828E-42  1.916952E-38  1.891107E-34
         5 0001-01-01 00:00:30.00  1.323769E-02  4.986826E+01  4.988150E+01  3.206250E+07  01
                       (01,03,10)  3.678889E-03  1.386670E-34  6.460245E-02  3.631726E-01
         5 0001-01-01 00:00:30.00  1.584932E-64  4.885859E+01  4.885859E+01  3.150000E+07  02
                       (01,06,10)  3.004711E-33  4.161785E-39  7.609744E-35  1.413196E-31
         6 0001-01-01 00:00:36.00  1.756264E-02  4.985956E+01  4.987712E+01  3.206250E+07  01
                       (01,02,10)  3.770395E-03  2.794460E-17  7.023804E-02  4.288157E-01
         6 0001-01-01 00:00:36.00  7.008183E-60  4.885859E+01  4.885859E+01  3.150000E+07  02
                       (01,06,10)  6.323804E-31  2.100694E-36  5.682804E-32  2.971728E-29
         7 0001-01-01 00:00:42.00  2.189111E-02  4.985084E+01  4.987273E+01  3.206250E+07  01
                       (01,01,10)  3.717737E-03  1.025063E-16  7.186210E-02  4.878593E-01
         7 0001-01-01 00:00:42.00  6.930316E-56  4.885859E+01  4.885859E+01  3.150000E+07  02
                       (01,06,10)  6.293071E-29  3.623954E-34  1.193976E-29  2.955227E-27
         8 0001-01-01 00:00:48.00  2.598568E-02  4.984258E+01  4.986857E+01  3.206250E+07  01
                       (01,01,10)  3.592526E-03  6.926961E-16  7.068304E-02  5.377958E-01
         8 0001-01-01 00:00:48.00  2.571550E-52  4.885859E+01  4.885859E+01  3.150000E+07  02
                       (01,06,10)  3.836471E-27  3.526031E-32  1.186506E-27  1.800209E-25
         9 0001-01-01 00:00:54.00  2.962822E-02  4.983521E+01  4.986484E+01  3.206250E+07  01
                       (02,01,10)  1.067321E-02  4.180416E-16  6.686368E-02  5.762497E-01
         9 0001-01-01 00:00:54.00  4.199436E-49  4.885859E+01  4.885859E+01  3.150000E+07  02
                       (01,06,10)  1.551391E-25  1.852538E-30  7.221998E-26  7.274799E-24
        10 0001-01-01 00:01:00.00  3.266905E-02  4.982904E+01  4.986171E+01  3.206250E+07  01
                       (02,01,10)  1.053523E-02  2.152266E-15  7.267233E-02  6.013819E-01
        10 0001-01-01 00:01:00.00  3.827133E-46  4.885859E+01  4.885859E+01  3.150000E+07  02
                       (01,06,10)  4.687007E-24  6.073362E-29  2.916466E-24  2.196143E-22
        11 0001-01-01 00:01:06.00  3.505511E-02  4.982416E+01  4.985922E+01  3.206250E+07  01
                       (02,15,10)  1.029452E-02  8.199318E-15  7.403657E-02  6.123043E-01
        11 0001-01-01 00:01:06.00  1.946266E-43  4.885859E+01  4.885859E+01  3.150000E+07  02
                       (01,10,10)  1.057802E-22  1.671355E-27  8.797387E-23  4.952511E-21
        12 0001-01-01 00:01:12.00  3.682169E-02  4.982052E+01  4.985734E+01  3.206250E+07  01
                       (02,15,10)  9.991905E-03  2.476538E-14  7.142796E-02  6.093957E-01
        12 0001-01-01 00:01:12.00  5.447965E-41  4.885859E+01  4.885859E+01  3.150000E+07  02
                       (01,10,10)  1.772007E-21  2.835458E-26  1.982277E-21  8.285728E-20
        13 0001-01-01 00:01:18.00  3.806103E-02  4.981793E+01  4.985599E+01  3.206250E+07  01
                       (02,01,10)  9.643696E-03  6.390889E-14  6.590248E-02  5.943465E-01
        13 0001-01-01 00:01:18.00  1.195980E-38  4.885859E+01  4.885859E+01  3.150000E+07  02
                       (01,10,10)  2.627678E-20  3.699410E-25  3.312048E-20  1.227622E-18
        14 0001-01-01 00:01:24.00  3.888790E-02  4.981615E+01  4.985504E+01  3.206250E+07  01
                       (02,01,10)  9.242377E-03  1.461361E-13  5.873657E-02  5.981627E-01
        14 0001-01-01 00:01:24.00  1.812268E-36  4.885859E+01  4.885859E+01  3.150000E+07  02
                       (01,10,10)  3.634493E-19  4.590252E-24  4.902820E-19  1.921912E-17
        15 0001-01-01 00:01:30.00  3.941126E-02  4.981499E+01  4.985440E+01  3.206250E+07  01
                       (01,15,10)  3.297410E-03  1.943980E-12  6.165776E-02  6.035252E-01
        15 0001-01-01 00:01:30.00  1.457231E-34  4.885859E+01  4.885859E+01  3.150000E+07  02
                       (01,10,10)  2.865844E-18  4.689920E-23  5.711884E-18  1.378687E-16
        16 0001-01-01 00:01:36.00  3.971480E-02  4.981426E+01  4.985397E+01  3.206250E+07  01
                       (01,01,10)  3.181667E-03  3.678237E-12  6.054638E-02  5.983326E-01
        16 0001-01-01 00:01:36.00  7.264655E-33  4.885859E+01  4.885859E+01  3.150000E+07  02
                       (01,10,10)  2.072390E-17  3.179362E-22  5.381430E-17  9.836275E-16
        17 0001-01-01 00:01:42.00  3.985208E-02  4.981386E+01  4.985371E+01  3.206250E+07  01
                       (01,01,10)  2.974007E-03  6.522032E-12  5.796611E-02  5.986984E-01
        17 0001-01-01 00:01:42.00  2.792452E-31  4.885859E+01  4.885859E+01  3.150000E+07  02
                       (01,10,10)  1.292370E-16  2.731312E-21  3.780989E-16  5.942072E-15
        18 0001-01-01 00:01:48.00  3.985963E-02  4.981372E+01  4.985358E+01  3.206250E+07  01
                       (04,02,10)  1.261534E-02  6.510565E-14  4.607552E-02  6.037204E-01
        18 0001-01-01 00:01:48.00  8.658764E-30  4.885859E+01  4.885859E+01  3.150000E+07  02
                       (01,10,10)  7.208692E-16  1.712189E-20  2.325927E-15  3.302731E-14
        19 0001-01-01 00:01:54.00  3.977834E-02  4.981375E+01  4.985353E+01  3.206250E+07  01
                       (04,07,10)  1.146713E-02  1.730784E-14  4.860004E-02  5.995457E-01
        19 0001-01-01 00:01:54.00  2.197348E-28  4.885859E+01  4.885859E+01  3.150000E+07  02
                       (01,10,10)  3.641837E-15  7.949621E-20  1.290938E-14  1.663594E-13
        20 0001-01-01 00:02:00.00  3.966207E-02  4.981386E+01  4.985352E+01  3.206250E+07  01
                       (04,09,10)  1.037570E-02  3.763797E-14  4.627794E-02  5.890744E-01
        20 0001-01-01 00:02:00.00  4.658561E-27  4.885859E+01  4.885859E+01  3.150000E+07  02
                       (01,10,10)  1.682002E-14  2.783443E-19  6.480130E-14  7.656954E-13
        21 0001-01-01 00:02:06.00  3.956318E-02  4.981392E+01  4.985349E+01  3.206250E+07  01
                       (10,15,10)  9.222758E-03  1.713505E-11  4.898540E-02  5.961104E-01
        21 0001-01-01 00:02:06.00  8.382096E-26  4.885859E+01  4.885859E+01  3.150000E+07  02
                       (01,10,10)  7.157798E-14  2.300231E-18  2.972262E-13  3.247377E-12
        22 0001-01-01 00:02:12.00  3.950803E-02  4.981390E+01  4.985341E+01  3.206250E+07  01
                       (10,01,10)  1.062583E-02  5.538947E-11  4.790734E-02  5.938188E-01
        22 0001-01-01 00:02:12.00  1.298897E-24  4.885859E+01  4.885859E+01  3.150000E+07  02
                       (01,10,10)  2.827179E-13  4.841065E-18  1.255618E-12  1.278111E-11
        23 0001-01-01 00:02:18.00  3.948797E-02  4.981381E+01  4.985330E+01  3.206250E+07  01
                       (10,01,10)  1.193760E-02  1.656700E-10  4.421540E-02  5.820892E-01
        23 0001-01-01 00:02:18.00  1.753204E-23  4.885859E+01  4.885859E+01  3.150000E+07  02
                       (01,10,10)  1.042336E-12  1.133347E-17  4.921274E-12  4.694750E-11
        24 0001-01-01 00:02:24.00  3.947543E-02  4.981371E+01  4.985318E+01  3.206250E+07  01
                       (11,15,10)  8.775249E-03  5.985950E-09  4.862539E-02  5.904037E-01
        24 0001-01-01 00:02:24.00  2.084501E-22  4.885859E+01  4.885859E+01  3.150000E+07  02
                       (01,10,10)  3.607252E-12  2.771879E-17  1.799665E-11  1.618460E-10
        25 0001-01-01 00:02:30.00  3.944928E-02  4.981363E+01  4.985308E+01  3.206250E+07  01
                       (11,01,10)  1.023863E-02  1.458681E-08  4.936594E-02  5.908577E-01
        25 0001-01-01 00:02:30.00  2.201981E-21  4.885859E+01  4.885859E+01  3.150000E+07  02
                       (01,10,10)  1.176867E-11  6.780226E-17  6.174929E-11  5.258956E-10
        26 0001-01-01 00:02:36.00  3.940602E-02  4.981358E+01  4.985299E+01  3.206250E+07  01
                       (11,15,10)  1.163227E-02  3.352462E-08  4.732912E-02  5.819765E-01
        26 0001-01-01 00:02:36.00  2.084955E-20  4.885859E+01  4.885859E+01  3.150000E+07  02
                       (01,10,10)  3.635551E-11  1.531362E-16  1.996415E-10  1.617776E-09
        27 0001-01-01 00:02:42.00  3.935108E-02  4.981356E+01  4.985291E+01  3.206250E+07  01
                       (12,01,10)  8.304228E-03  6.715878E-07  4.755849E-02  5.848252E-01
        27 0001-01-01 00:02:42.00  1.781332E-19  4.885859E+01  4.885859E+01  3.150000E+07  02
                       (01,10,10)  1.066976E-10  3.251546E-16  6.108869E-10  4.727192E-09
        28 0001-01-01 00:02:48.00  3.928405E-02  4.981355E+01  4.985284E+01  3.206250E+07  01
                       (12,01,10)  9.796331E-03  1.311331E-06  4.984825E-02  5.874660E-01
        28 0001-01-01 00:02:48.00  1.383010E-18  4.885859E+01  4.885859E+01  3.150000E+07  02
                       (01,10,10)  2.985440E-10  6.406256E-16  1.774977E-09  1.316698E-08
        29 0001-01-01 00:02:54.00  3.919212E-02  4.981360E+01  4.985279E+01  3.206250E+07  01
                       (12,01,10)  1.124188E-02  2.444819E-06  4.949558E-02  5.813732E-01
        29 0001-01-01 00:02:54.00  9.808987E-18  4.885859E+01  4.885859E+01  3.150000E+07  02
                       (01,10,10)  7.985048E-10  1.193543E-15  4.914484E-09  3.505155E-08
        30 0001-01-01 00:03:00.00  3.905157E-02  4.981373E+01  4.985278E+01  3.206250E+07  01
                       (12,01,10)  1.257825E-02  4.363417E-06  4.651680E-02  5.795136E-01
        30 0001-01-01 00:03:00.00  6.392012E-17  4.885859E+01  4.885859E+01  3.150000E+07  02
                       (01,10,10)  2.047402E-09  2.124574E-15  1.299992E-08  8.943618E-08
      WRT_HIS     - wrote history     fields (Index=1,1) in record = 0000002               01
      WRT_AVG     - wrote averaged    fields             in record = 0000001               01
      WRT_RST     - wrote re-start    fields (Index=1,1) in record = 0000001               01
      WRT_HIS     - wrote history     fields (Index=1,1) in record = 0000002               02
      WRT_AVG     - wrote averaged    fields             in record = 0000001               02
      WRT_RST     - wrote re-start    fields (Index=1,1) in record = 0000001               02
        31 0001-01-01 00:03:06.00  3.882826E-02  4.981404E+01  4.985286E+01  3.206250E+07  01
                       (13,02,10)  8.941516E-03  1.349550E-04  5.223031E-02  5.832740E-01
        31 0001-01-01 00:03:06.00  3.843280E-16  4.885859E+01  4.885859E+01  3.150000E+07  02
                       (01,10,10)  5.043203E-09  3.613665E-15  3.294781E-08  2.191892E-07
        32 0001-01-01 00:03:12.00  3.847370E-02  4.981460E+01  4.985307E+01  3.206250E+07  01
                       (13,02,10)  1.023467E-02  2.118627E-04  5.459181E-02  5.792180E-01
        32 0001-01-01 00:03:12.00  2.142290E-15  4.885859E+01  4.885859E+01  3.150000E+07  02
                       (01,10,10)  1.196217E-08  5.894438E-15  8.017369E-08  5.171941E-07
        33 0001-01-01 00:03:18.00  3.792402E-02  4.981555E+01  4.985348E+01  3.206250E+07  01
                       (14,03,10)  4.276122E-03  2.366934E-03  6.130525E-02  5.744455E-01
        33 0001-01-01 00:03:18.00  1.110873E-14  4.885859E+01  4.885859E+01  3.150000E+07  02
                       (01,10,10)  2.736937E-08  9.306764E-15  1.877515E-07  1.176959E-06
        34 0001-01-01 00:03:24.00  3.710992E-02  4.981704E+01  4.985415E+01  3.206250E+07  01
                       (14,05,10)  5.074578E-03  7.388399E-03  6.549276E-02  5.777568E-01
        34 0001-01-01 00:03:24.00  5.380010E-14  4.885859E+01  4.885859E+01  3.150000E+07  02
                       (01,10,10)  6.052345E-08  1.436421E-14  4.238433E-07  2.588225E-06
        35 0001-01-01 00:03:30.00  3.597605E-02  4.981916E+01  4.985514E+01  3.206250E+07  01
                       (14,06,10)  1.051524E-02  8.860078E-03  6.762634E-02  5.737346E-01
        35 0001-01-01 00:03:30.00  2.440480E-13  4.885859E+01  4.885859E+01  3.150000E+07  02
                       (01,10,10)  1.295413E-07  2.201999E-14  9.241750E-07  5.507964E-06
        36 0001-01-01 00:03:36.00  3.449937E-02  4.982198E+01  4.985648E+01  3.206250E+07  01
                       (14,06,10)  1.201758E-02  1.133783E-02  7.053721E-02  5.616504E-01
        36 0001-01-01 00:03:36.00  1.040399E-12  4.885859E+01  4.885859E+01  3.150000E+07  02
                       (01,10,10)  2.688055E-07  3.434310E-14  1.949046E-06  1.136202E-05
        37 0001-01-01 00:03:42.00  3.269798E-02  4.982544E+01  4.985814E+01  3.206250E+07  01
                       (14,06,10)  1.340111E-02  1.407997E-02  7.033673E-02  5.539765E-01
        37 0001-01-01 00:03:42.00  4.178312E-12  4.885859E+01  4.885859E+01  3.150000E+07  02
                       (01,10,10)  5.414209E-07  5.615475E-14  3.982279E-06  2.274636E-05
        38 0001-01-01 00:03:48.00  3.063077E-02  4.982944E+01  4.986007E+01  3.206250E+07  01
                       (14,06,10)  1.460693E-02  1.697175E-02  6.692392E-02  5.416592E-01
        38 0001-01-01 00:03:48.00  1.585369E-11  4.885859E+01  4.885859E+01  3.150000E+07  02
                       (01,10,10)  1.060018E-06  9.867428E-14  7.891753E-06  4.425708E-05
        39 0001-01-01 00:03:54.00  2.839388E-02  4.983377E+01  4.986217E+01  3.206250E+07  01
                       (14,06,10)  1.559375E-02  1.986359E-02  6.059722E-02  5.542445E-01
        39 0001-01-01 00:03:54.00  5.694856E-11  4.885859E+01  4.885859E+01  3.150000E+07  02
                       (01,10,10)  2.019383E-06  1.870823E-13  1.519025E-05  8.377401E-05
        40 0001-01-01 00:04:00.00  2.611649E-02  4.983818E+01  4.986430E+01  3.206249E+07  01
                       (14,06,10)  1.634099E-02  2.258833E-02  5.198627E-02  5.922436E-01
        40 0001-01-01 00:04:00.00  1.941548E-10  4.885859E+01  4.885859E+01  3.150001E+07  02
                       (01,10,10)  3.747853E-06  3.750843E-13  2.842612E-05  1.544658E-04
        41 0001-01-01 00:04:06.00  2.395201E-02  4.984236E+01  4.986631E+01  3.206249E+07  01
                       (15,07,10)  1.850860E-02  1.988311E-04  6.508269E-02  6.281198E-01
        41 0001-01-01 00:04:06.00  6.293756E-10  4.885860E+01  4.885860E+01  3.150001E+07  02
                       (01,10,10)  6.782544E-06  7.705215E-13  5.178048E-05  2.776746E-04
        42 0001-01-01 00:04:12.00  2.206090E-02  4.984597E+01  4.986803E+01  3.206248E+07  01
                       (16,10,10)  1.391489E-02  6.558098E-06  6.819730E-02  6.864038E-01
        42 0001-01-01 00:04:12.00  1.944158E-09  4.885861E+01  4.885861E+01  3.150002E+07  02
                       (01,10,10)  1.198161E-05  1.576467E-12  9.188884E-05  4.871893E-04
        43 0001-01-01 00:04:18.00  2.058752E-02  4.984873E+01  4.986932E+01  3.206247E+07  01
                       (16,10,10)  1.611021E-02  2.781821E-06  7.007127E-02  7.390212E-01
        43 0001-01-01 00:04:18.00  5.732110E-09  4.885863E+01  4.885863E+01  3.150003E+07  02
                       (01,10,10)  2.067728E-05  3.149278E-12  1.590290E-04  8.349472E-04
        44 0001-01-01 00:04:24.00  1.963888E-02  4.985042E+01  4.987006E+01  3.206245E+07  01
                       (16,10,10)  1.821644E-02  3.767577E-06  6.846615E-02  7.823058E-01
        44 0001-01-01 00:04:24.00  1.616303E-08  4.885867E+01  4.885867E+01  3.150005E+07  02
                       (01,10,10)  3.489331E-05  6.067490E-12  2.686052E-04  1.399090E-03
        45 0001-01-01 00:04:30.00  1.927184E-02  4.985091E+01  4.987018E+01  3.206241E+07  01
                       (16,10,10)  2.013937E-02  1.403957E-05  6.327846E-02  8.151451E-01
        45 0001-01-01 00:04:30.00  4.365105E-08  4.885873E+01  4.885873E+01  3.150009E+07  02
                       (01,10,10)  5.761955E-05  1.118922E-11  4.431922E-04  2.293858E-03
        46 0001-01-01 00:04:36.00  1.948959E-02  4.985020E+01  4.986969E+01  3.206235E+07  01
                       (17,10,10)  1.566329E-02  8.392234E-06  7.095390E-02  8.371296E-01
        46 0001-01-01 00:04:36.00  1.131121E-07  4.885883E+01  4.885883E+01  3.150015E+07  02
                       (01,10,10)  9.318492E-05  1.965190E-11  7.147925E-04  3.683004E-03
        47 0001-01-01 00:04:42.00  2.024573E-02  4.984835E+01  4.986860E+01  3.206225E+07  01
                       (17,10,10)  1.784551E-02  1.019777E-05  7.054236E-02  8.485251E-01
        47 0001-01-01 00:04:42.00  2.816091E-07  4.885898E+01  4.885898E+01  3.150025E+07  02
                       (01,10,10)  1.476883E-04  3.274010E-11  1.127831E-03  5.794683E-03
        48 0001-01-01 00:04:48.00  2.145528E-02  4.984552E+01  4.986698E+01  3.206210E+07  01
                       (17,10,10)  1.986251E-02  1.203231E-05  6.629470E-02  8.498492E-01
        48 0001-01-01 00:04:48.00  6.746758E-07  4.885922E+01  4.885922E+01  3.150040E+07  02
                       (01,10,10)  2.295578E-04  5.151130E-11  1.741868E-03  8.940871E-03
        49 0001-01-01 00:04:54.00  2.301165E-02  4.984188E+01  4.986489E+01  3.206186E+07  01
                       (18,10,10)  1.519230E-02  1.777680E-06  7.140682E-02  8.416256E-01
        49 0001-01-01 00:04:54.00  1.557258E-06  4.885958E+01  4.885959E+01  3.150064E+07  02
                       (01,09,10)  3.501217E-04  1.988630E-10  2.635104E-03  1.353587E-02
        50 0001-01-01 00:05:00.00  2.480572E-02  4.983758E+01  4.986239E+01  3.206152E+07  01
                       (18,10,10)  1.743367E-02  2.329553E-06  7.222535E-02  8.357419E-01
        50 0001-01-01 00:05:00.00  3.467403E-06  4.886013E+01  4.886013E+01  3.150098E+07  02
                       (01,09,10)  5.243031E-04  2.735277E-10  3.906258E-03  2.011907E-02
        51 0001-01-01 00:05:06.00  2.673743E-02  4.983277E+01  4.985951E+01  3.206101E+07  01
                       (18,10,10)  1.953113E-02  2.935626E-06  6.906294E-02  8.342869E-01
        51 0001-01-01 00:05:06.00  7.454333E-06  4.886093E+01  4.886094E+01  3.150149E+07  02
                       (01,08,10)  7.711708E-04  4.304700E-10  5.676842E-03  2.937009E-02
        52 0001-01-01 00:05:12.00  2.871426E-02  4.982751E+01  4.985623E+01  3.206028E+07  01
                       (19,09,10)  1.470952E-02  1.396551E-07  7.139882E-02  8.251349E-01
        52 0001-01-01 00:05:12.00  1.548585E-05  4.886209E+01  4.886211E+01  3.150222E+07  02
                       (01,07,10)  1.114484E-03  3.996381E-10  8.088870E-03  4.212311E-02
        53 0001-01-01 00:05:18.00  3.064131E-02  4.982187E+01  4.985251E+01  3.205924E+07  01
                       (19,09,10)  1.700136E-02  1.705036E-07  7.342672E-02  8.342579E-01
        53 0001-01-01 00:05:18.00  3.109979E-05  4.886374E+01  4.886377E+01  3.150326E+07  02
                       (01,06,10)  1.582733E-03  1.475259E-10  1.130103E-02  5.935913E-02
        54 0001-01-01 00:05:24.00  3.241647E-02  4.981587E+01  4.984829E+01  3.205780E+07  01
                       (19,10,10)  1.917465E-02  1.214323E-07  7.143625E-02  8.323637E-01
        54 0001-01-01 00:05:24.00  6.038534E-05  4.886604E+01  4.886610E+01  3.150470E+07  02
                       (01,06,10)  2.208701E-03  1.102111E-10  1.547492E-02  8.217990E-02
        55 0001-01-01 00:05:30.00  3.394069E-02  4.980950E+01  4.984344E+01  3.205582E+07  01
                       (19,09,10)  2.111287E-02  3.341411E-07  6.514316E-02  8.239783E-01
        55 0001-01-01 00:05:30.00  1.133260E-04  4.886922E+01  4.886933E+01  3.150668E+07  02
                       (01,06,10)  3.027911E-03  3.718246E-11  2.075398E-02  1.117379E-01
        56 0001-01-01 00:05:36.00  3.513855E-02  4.980261E+01  4.983775E+01  3.205316E+07  01
                       (20,09,10)  1.654749E-02  6.607157E-08  7.417176E-02  8.337584E-01
        56 0001-01-01 00:05:36.00  2.054104E-04  4.887351E+01  4.887372E+01  3.150934E+07  02
                       (01,06,10)  4.075555E-03  6.483125E-11  2.722640E-02  1.491114E-01
        57 0001-01-01 00:05:42.00  3.597279E-02  4.979496E+01  4.983093E+01  3.204967E+07  01
                       (20,09,10)  1.879019E-02  8.559003E-08  7.338921E-02  8.319135E-01
        57 0001-01-01 00:05:42.00  3.592259E-04  4.887923E+01  4.887959E+01  3.151283E+07  02
                       (01,10,10)  5.381966E-03  1.622213E-11  3.487081E-02  1.951342E-01
        58 0001-01-01 00:05:48.00  3.644066E-02  4.978616E+01  4.982260E+01  3.204515E+07  01
                       (20,09,10)  2.081862E-02  1.040364E-07  6.812522E-02  8.232517E-01
        58 0001-01-01 00:05:48.00  6.052464E-04  4.888669E+01  4.888730E+01  3.151735E+07  02
                       (01,10,10)  6.965348E-03  6.348765E-11  4.349405E-02  2.501348E-01
        59 0001-01-01 00:05:54.00  3.655480E-02  4.977580E+01  4.981235E+01  3.203946E+07  01
                       (21,07,10)  1.608598E-02  1.787413E-08  7.438866E-02  8.342017E-01
        59 0001-01-01 00:05:54.00  9.812005E-04  4.889624E+01  4.889722E+01  3.152304E+07  02
                       (01,10,10)  8.824932E-03  2.555807E-10  5.264941E-02  3.137333E-01
        60 0001-01-01 00:06:00.00  3.632520E-02  4.976346E+01  4.979979E+01  3.203245E+07  01
                       (21,07,10)  1.839304E-02  2.329751E-08  7.478652E-02  8.327911E-01
        60 0001-01-01 00:06:00.00  1.528430E-03  4.890818E+01  4.890971E+01  3.153005E+07  02
                       (01,10,10)  1.093156E-02  5.683577E-10  6.160648E-02  3.845656E-01
      WRT_HIS     - wrote history     fields (Index=1,1) in record = 0000003               01
      WRT_AVG     - wrote averaged    fields             in record = 0000002               01
      WRT_RST     - wrote re-start    fields (Index=1,1) in record = 0000002               01
      WRT_HIS     - wrote history     fields (Index=1,1) in record = 0000003               02
      WRT_AVG     - wrote averaged    fields             in record = 0000002               02
      WRT_RST     - wrote re-start    fields (Index=1,1) in record = 0000002               02
        61 0001-01-01 00:06:06.00  3.575501E-02  4.974884E+01  4.978460E+01  3.202403E+07  01
                       (21,07,10)  2.051020E-02  2.791617E-08  7.064121E-02  8.226332E-01
        61 0001-01-01 00:06:06.00  2.286236E-03  4.892274E+01  4.892503E+01  3.153847E+07  02
                       (01,06,10)  1.322475E-02  4.163819E-10  6.932455E-02  4.603126E-01
        62 0001-01-01 00:06:12.00  3.484937E-02  4.973178E+01  4.976663E+01  3.201422E+07  01
                       (21,07,10)  2.231333E-02  3.194081E-08  6.184965E-02  8.352686E-01
        62 0001-01-01 00:06:12.00  3.282943E-03  4.894000E+01  4.894329E+01  3.154828E+07  02
                       (01,06,10)  1.560915E-02  5.006607E-10  7.459349E-02  5.376857E-01
        63 0001-01-01 00:06:18.00  3.362914E-02  4.971231E+01  4.974594E+01  3.200309E+07  01
                       (21,09,10)  2.370630E-02  5.016933E-08  4.910605E-02  8.347708E-01
        63 0001-01-01 00:06:18.00  4.528932E-03  4.895986E+01  4.896439E+01  3.155941E+07  02
                       (01,06,10)  1.796429E-02  4.598666E-10  7.617912E-02  6.128861E-01
        64 0001-01-01 00:06:24.00  3.213536E-02  4.969068E+01  4.972281E+01  3.199084E+07  01
                       (17,10,10)  1.409296E-02  2.771887E-06  4.597559E-02  8.229412E-01
        64 0001-01-01 00:06:24.00  6.009954E-03  4.898198E+01  4.898799E+01  3.157166E+07  02
                       (01,06,10)  2.015378E-02  2.775051E-10  7.317761E-02  6.818955E-01
        65 0001-01-01 00:06:30.00  3.042757E-02  4.966733E+01  4.969776E+01  3.197775E+07  01
                       (17,10,10)  1.264790E-02  1.572543E-06  4.587869E-02  8.362252E-01
        65 0001-01-01 00:06:30.00  7.687596E-03  4.900585E+01  4.901353E+01  3.158475E+07  02
                       (02,06,10)  1.510491E-02  4.611095E-10  7.414604E-02  7.410874E-01
        66 0001-01-01 00:06:36.00  2.857616E-02  4.964289E+01  4.967147E+01  3.196413E+07  01
                       (18,10,10)  1.576530E-02  1.285132E-05  4.279005E-02  8.365604E-01
        66 0001-01-01 00:06:36.00  9.502610E-03  4.903080E+01  4.904030E+01  3.159837E+07  02
                       (02,10,10)  1.750139E-02  2.866210E-10  7.688794E-02  7.875335E-01
        67 0001-01-01 00:06:42.00  2.665571E-02  4.961800E+01  4.964465E+01  3.195030E+07  01
                       (18,10,10)  1.433099E-02  1.307117E-05  4.447468E-02  8.247537E-01
        67 0001-01-01 00:06:42.00  1.138441E-02  4.905616E+01  4.906755E+01  3.161220E+07  02
                       (02,10,10)  1.976333E-02  4.516970E-10  7.512313E-02  8.193728E-01
        68 0001-01-01 00:06:48.00  2.473760E-02  4.959326E+01  4.961800E+01  3.193656E+07  01
                       (18,10,10)  1.291089E-02  1.323114E-05  4.497822E-02  8.033937E-01
        68 0001-01-01 00:06:48.00  1.326200E-02  4.908132E+01  4.909458E+01  3.162594E+07  02
                       (02,10,10)  2.175141E-02  8.311888E-10  6.829357E-02  8.360634E-01
        69 0001-01-01 00:06:54.00  2.288155E-02  4.956916E+01  4.959205E+01  3.192314E+07  01
                       (19,06,10)  1.596425E-02  2.278448E-06  4.082336E-02  7.750861E-01
        69 0001-01-01 00:06:54.00  1.507378E-02  4.910578E+01  4.912085E+01  3.163936E+07  02
                       (03,10,10)  1.702338E-02  2.449134E-11  7.724607E-02  8.381412E-01
        70 0001-01-01 00:07:00.00  2.113099E-02  4.954603E+01  4.956716E+01  3.191020E+07  01
                       (19,06,10)  1.457055E-02  2.397937E-06  4.274768E-02  7.421308E-01
        70 0001-01-01 00:07:00.00  1.677487E-02  4.912922E+01  4.914600E+01  3.165230E+07  02
                       (03,10,10)  1.934955E-02  1.716812E-10  7.672001E-02  8.272520E-01
        71 0001-01-01 00:07:06.00  1.951295E-02  4.952405E+01  4.954356E+01  3.189783E+07  01
                       (19,06,10)  1.317609E-02  2.508831E-06  4.370102E-02  7.063361E-01
        71 0001-01-01 00:07:06.00  1.833756E-02  4.915147E+01  4.916981E+01  3.166467E+07  02
                       (03,09,10)  2.142800E-02  6.931722E-10  7.106522E-02  8.361201E-01
        72 0001-01-01 00:07:12.00  1.804455E-02  4.950329E+01  4.952133E+01  3.188609E+07  01
                       (19,06,10)  1.180923E-02  2.573026E-06  4.348290E-02  6.688044E-01
        72 0001-01-01 00:07:12.00  1.975004E-02  4.917244E+01  4.919219E+01  3.167641E+07  02
                       (04,10,10)  1.653103E-02  3.035080E-10  7.724948E-02  8.399399E-01
        73 0001-01-01 00:07:18.00  1.673507E-02  4.948376E+01  4.950050E+01  3.187498E+07  01
                       (20,09,10)  1.475636E-02  2.158253E-07  4.036535E-02  6.299590E-01
        73 0001-01-01 00:07:18.00  2.101082E-02  4.919211E+01  4.921312E+01  3.168752E+07  02
                       (04,07,10)  1.891308E-02  1.027602E-09  7.793716E-02  8.300096E-01
        74 0001-01-01 00:07:24.00  1.558345E-02  4.946547E+01  4.948105E+01  3.186451E+07  01
                       (20,09,10)  1.339291E-02  2.150657E-07  4.182255E-02  5.899012E-01
        74 0001-01-01 00:07:24.00  2.212556E-02  4.921048E+01  4.923260E+01  3.169799E+07  02
                       (04,06,10)  2.107668E-02  7.359473E-10  7.350544E-02  8.353788E-01
        75 0001-01-01 00:07:30.00  1.457111E-02  4.944844E+01  4.946301E+01  3.185471E+07  01
                       (20,09,10)  1.204686E-02  2.072101E-07  4.235566E-02  5.486401E-01
        75 0001-01-01 00:07:30.00  2.310332E-02  4.922754E+01  4.925064E+01  3.170779E+07  02
                       (05,10,10)  1.603777E-02  2.623716E-08  7.684818E-02  8.413117E-01
        76 0001-01-01 00:07:36.00  1.366317E-02  4.943276E+01  4.944643E+01  3.184558E+07  01
                       (21,09,10)  1.495622E-02  1.531287E-07  3.876124E-02  5.063854E-01
        76 0001-01-01 00:07:36.00  2.395668E-02  4.924326E+01  4.926722E+01  3.171692E+07  02
                       (05,10,10)  1.847255E-02  3.368507E-08  7.866687E-02  8.326493E-01
        77 0001-01-01 00:07:42.00  1.281823E-02  4.941852E+01  4.943134E+01  3.183715E+07  01
                       (21,09,10)  1.363847E-02  1.654676E-07  4.032959E-02  4.634985E-01
        77 0001-01-01 00:07:42.00  2.470152E-02  4.925761E+01  4.928231E+01  3.172535E+07  02
                       (05,10,10)  2.072317E-02  4.181272E-08  7.542327E-02  8.344668E-01
        78 0001-01-01 00:07:48.00  1.200275E-02  4.940580E+01  4.941780E+01  3.182944E+07  01
                       (21,09,10)  1.232418E-02  1.848792E-07  4.118262E-02  4.205886E-01
        78 0001-01-01 00:07:48.00  2.535967E-02  4.927054E+01  4.929590E+01  3.173306E+07  02
                       (06,10,10)  1.566746E-02  1.444990E-06  7.522619E-02  8.430183E-01
        79 0001-01-01 00:07:54.00  1.119550E-02  4.939461E+01  4.940580E+01  3.182246E+07  01
                       (21,07,10)  1.103722E-02  1.158856E-07  4.108876E-02  3.783617E-01
        79 0001-01-01 00:07:54.00  2.596039E-02  4.928201E+01  4.930797E+01  3.174004E+07  02
                       (06,10,10)  1.820154E-02  1.460741E-06  7.773859E-02  8.362317E-01
        80 0001-01-01 00:08:00.00  1.038033E-02  4.938495E+01  4.939533E+01  3.181621E+07  01
                       (21,07,10)  9.802490E-03  1.193326E-07  3.996534E-02  3.375850E-01
        80 0001-01-01 00:08:00.00  2.654286E-02  4.929199E+01  4.931853E+01  3.174629E+07  02
                       (06,10,10)  2.060737E-02  1.118462E-06  7.517041E-02  8.355583E-01
        81 0001-01-01 00:08:06.00  9.533671E-03  4.937680E+01  4.938633E+01  3.181068E+07  01
                       (21,07,10)  8.640323E-03  1.267028E-07  3.791970E-02  3.110095E-01
        81 0001-01-01 00:08:06.00  2.715623E-02  4.930045E+01  4.932761E+01  3.175182E+07  02
                       (06,10,10)  2.273771E-02  1.345875E-07  6.674911E-02  8.482606E-01
        82 0001-01-01 00:08:12.00  8.621928E-03  4.937011E+01  4.937873E+01  3.180582E+07  01
                       (01,15,10)  1.072756E-03  1.123159E-08  4.711935E-02  3.043381E-01
        82 0001-01-01 00:08:12.00  2.785764E-02  4.930739E+01  4.933525E+01  3.175668E+07  02
                       (07,09,10)  1.913836E-02  3.494044E-04  6.767053E-02  8.454156E-01
        83 0001-01-01 00:08:18.00  7.612832E-03  4.936483E+01  4.937244E+01  3.180160E+07  01
                       (01,15,10)  1.145424E-03  5.642780E-08  5.062273E-02  2.925110E-01
        83 0001-01-01 00:08:18.00  2.870513E-02  4.931282E+01  4.934152E+01  3.176090E+07  02
                       (07,09,10)  2.206347E-02  4.636830E-04  6.322079E-02  8.581791E-01
        84 0001-01-01 00:08:24.00  6.495226E-03  4.936085E+01  4.936734E+01  3.179796E+07  01
                       (01,15,10)  1.094828E-03  1.439221E-07  5.229818E-02  2.735346E-01
        84 0001-01-01 00:08:24.00  2.974518E-02  4.931676E+01  4.934651E+01  3.176454E+07  02
                       (07,09,10)  2.484568E-02  6.075802E-04  5.225486E-02  8.834344E-01
        85 0001-01-01 00:08:30.00  5.293754E-03  4.935798E+01  4.936327E+01  3.179483E+07  01
                       (01,11,10)  9.061288E-04  9.455881E-07  5.164642E-02  2.482331E-01
        85 0001-01-01 00:08:30.00  3.099530E-02  4.931931E+01  4.935031E+01  3.176767E+07  02
                       (08,06,10)  1.807294E-02  2.884773E-02  3.405727E-02  9.421671E-01
        86 0001-01-01 00:08:36.00  4.070302E-03  4.935597E+01  4.936004E+01  3.179216E+07  01
                       (01,09,10)  5.797483E-04  4.675028E-07  4.840340E-02  2.176118E-01
        86 0001-01-01 00:08:36.00  3.242672E-02  4.932064E+01  4.935306E+01  3.177034E+07  02
                       (08,06,10)  2.090877E-02  3.341713E-02  3.177961E-02  1.021806E+00
        87 0001-01-01 00:08:42.00  2.911906E-03  4.935456E+01  4.935747E+01  3.178990E+07  01
                       (01,08,10)  1.321061E-04  1.290651E-09  4.258056E-02  1.826727E-01
        87 0001-01-01 00:08:42.00  3.395588E-02  4.932100E+01  4.935496E+01  3.177260E+07  02
                       (08,06,10)  2.359721E-02  3.749935E-02  2.681604E-02  1.089703E+00
        88 0001-01-01 00:08:48.00  1.911805E-03  4.935346E+01  4.935537E+01  3.178801E+07  01
                       (01,08,10)  4.076560E-04  5.355068E-09  3.448509E-02  1.620503E-01
        88 0001-01-01 00:08:48.00  3.545365E-02  4.932074E+01  4.935619E+01  3.177449E+07  02
                       (08,06,10)  2.598064E-02  4.069430E-02  1.958351E-02  1.143881E+00
        89 0001-01-01 00:08:54.00  1.150307E-03  4.935244E+01  4.935359E+01  3.178645E+07  01
                       (01,08,09)  5.919455E-04  1.026785E-08  2.512524E-02  1.585468E-01
        89 0001-01-01 00:08:54.00  3.677453E-02  4.932022E+01  4.935700E+01  3.177605E+07  02
                       (07,10,10)  3.499040E-02  1.233615E-03  6.563315E-02  1.183066E+00
        90 0001-01-01 00:09:00.00  6.807749E-04  4.935135E+01  4.935203E+01  3.178519E+07  01
                       (21,09,10)  1.711743E-03  1.746021E-07  1.803595E-02  1.621524E-01
        90 0001-01-01 00:09:00.00  3.779672E-02  4.931976E+01  4.935756E+01  3.177731E+07  02
                       (07,06,10)  3.566560E-02  1.357374E-03  8.207663E-02  1.206891E+00
      WRT_HIS     - wrote history     fields (Index=1,1) in record = 0000004               01
      WRT_AVG     - wrote averaged    fields             in record = 0000003               01
      WRT_RST     - wrote re-start    fields (Index=1,1) in record = 0000001               01
      WRT_HIS     - wrote history     fields (Index=1,1) in record = 0000004               02
      WRT_AVG     - wrote averaged    fields             in record = 0000003               02
      WRT_RST     - wrote re-start    fields (Index=1,1) in record = 0000001               02
        91 0001-01-01 00:09:06.00  5.229284E-04  4.935012E+01  4.935064E+01  3.178423E+07  01
                       (21,09,10)  1.188576E-03  1.704829E-07  1.746707E-02  1.624240E-01
        91 0001-01-01 00:09:06.00  3.845495E-02  4.931954E+01  4.935799E+01  3.177827E+07  02
                       (07,06,10)  3.590828E-02  1.494071E-03  9.020642E-02  1.216108E+00
        92 0001-01-01 00:09:12.00  6.650288E-04  4.934872E+01  4.934939E+01  3.178354E+07  01
                       (21,09,10)  7.040181E-04  1.796859E-07  1.681830E-02  1.594570E-01
        92 0001-01-01 00:09:12.00  3.874980E-02  4.931962E+01  4.935837E+01  3.177896E+07  02
                       (07,06,10)  3.581131E-02  1.596224E-03  8.948342E-02  1.211965E+00
        93 0001-01-01 00:09:18.00  1.072079E-03  4.934722E+01  4.934829E+01  3.178311E+07  01
                       (01,08,10)  3.105622E-03  2.664707E-08  1.663324E-02  1.592118E-01
        93 0001-01-01 00:09:18.00  3.872995E-02  4.931995E+01  4.935868E+01  3.177939E+07  02
                       (07,06,10)  3.540011E-02  1.660801E-03  8.075218E-02  1.195592E+00
        94 0001-01-01 00:09:24.00  1.696874E-03  4.934566E+01  4.934736E+01  3.178292E+07  01
                       (01,08,10)  3.425057E-03  2.590184E-08  2.408264E-02  1.793488E-01
        94 0001-01-01 00:09:24.00  3.845907E-02  4.932044E+01  4.935890E+01  3.177958E+07  02
                       (06,09,10)  2.648513E-02  2.966061E-04  8.103460E-02  1.168758E+00
        95 0001-01-01 00:09:30.00  2.487340E-03  4.934412E+01  4.934661E+01  3.178296E+07  01
                       (01,09,10)  3.641587E-03  1.314401E-06  2.959097E-02  1.984561E-01
        95 0001-01-01 00:09:30.00  3.798713E-02  4.932104E+01  4.935902E+01  3.177954E+07  02
                       (06,09,10)  2.666118E-02  3.359574E-04  8.022644E-02  1.132638E+00
        96 0001-01-01 00:09:36.00  3.390535E-03  4.934265E+01  4.934605E+01  3.178319E+07  01
                       (01,13,10)  3.763025E-03  4.909610E-06  3.313170E-02  2.146498E-01
        96 0001-01-01 00:09:36.00  3.734049E-02  4.932173E+01  4.935907E+01  3.177931E+07  02
                       (06,09,10)  2.663970E-02  3.728942E-04  7.705860E-02  1.087896E+00
        97 0001-01-01 00:09:42.00  4.353422E-03  4.934130E+01  4.934565E+01  3.178357E+07  01
                       (01,15,10)  3.804848E-03  1.443118E-06  3.487179E-02  2.410094E-01
        97 0001-01-01 00:09:42.00  3.653186E-02  4.932256E+01  4.935909E+01  3.177893E+07  02
                       (05,06,10)  1.859205E-02  1.524166E-05  8.264935E-02  1.035660E+00
        98 0001-01-01 00:09:48.00  5.325323E-03  4.934008E+01  4.934540E+01  3.178406E+07  01
                       (01,15,10)  3.785001E-03  1.244293E-06  3.505788E-02  2.611543E-01
        98 0001-01-01 00:09:48.00  3.557844E-02  4.932356E+01  4.935913E+01  3.177844E+07  02
                       (05,06,10)  1.878071E-02  1.730925E-05  8.245026E-02  9.769773E-01
        99 0001-01-01 00:09:54.00  6.262155E-03  4.933899E+01  4.934525E+01  3.178458E+07  01
                       (01,15,10)  3.724388E-03  5.539513E-07  3.405083E-02  2.741797E-01
        99 0001-01-01 00:09:54.00  3.451371E-02  4.932474E+01  4.935925E+01  3.177792E+07  02
                       (05,06,10)  1.892627E-02  1.928974E-05  7.890977E-02  9.133568E-01
       100 0001-01-01 00:10:00.00  7.130867E-03  4.933799E+01  4.934512E+01  3.178508E+07  01
[...]
                       (21,08,06)  8.785615E-04  3.026720E-03  6.168534E-02  3.791254E-01
      1760 0001-01-01 02:56:00.00  5.503833E-03  4.932712E+01  4.933262E+01  3.179073E+07  01
                       (01,03,06)  8.236207E-04  3.119166E-03  8.452118E-02  3.081839E-01
      1760 0001-01-01 02:56:00.00  8.729047E-03  4.928548E+01  4.929421E+01  3.177177E+07  02
                       (21,08,06)  8.635592E-04  3.014291E-03  6.204064E-02  3.691860E-01
      1761 0001-01-01 02:56:06.00  5.379734E-03  4.932222E+01  4.932760E+01  3.178742E+07  01
                       (01,03,06)  8.869437E-04  3.019008E-03  8.397143E-02  3.020540E-01
      1761 0001-01-01 02:56:06.00  8.165717E-03  4.929173E+01  4.929989E+01  3.177508E+07  02
                       (21,08,06)  8.541623E-04  3.003806E-03  6.233000E-02  3.571845E-01
      1762 0001-01-01 02:56:12.00  5.285523E-03  4.931727E+01  4.932255E+01  3.178410E+07  01
                       (01,03,06)  9.698844E-04  2.917285E-03  8.317099E-02  2.946238E-01
      1762 0001-01-01 02:56:12.00  7.567049E-03  4.929804E+01  4.930561E+01  3.177840E+07  02
                       (21,08,06)  8.505602E-04  2.995156E-03  6.255250E-02  3.461498E-01
      1763 0001-01-01 02:56:18.00  5.227217E-03  4.931223E+01  4.931746E+01  3.178077E+07  01
                       (01,03,06)  1.071194E-03  2.815313E-03  8.212884E-02  2.856755E-01
      1763 0001-01-01 02:56:18.00  6.951401E-03  4.930440E+01  4.931135E+01  3.178173E+07  02
                       (21,08,06)  8.525132E-04  2.988287E-03  6.270871E-02  3.337688E-01
      1764 0001-01-01 02:56:24.00  5.210833E-03  4.930711E+01  4.931232E+01  3.177743E+07  01
                       (01,03,06)  1.188658E-03  2.714611E-03  8.085930E-02  2.754109E-01
      1764 0001-01-01 02:56:24.00  6.339780E-03  4.931075E+01  4.931709E+01  3.178507E+07  02
                       (21,08,06)  8.596293E-04  2.983123E-03  6.279882E-02  3.192918E-01
      1765 0001-01-01 02:56:30.00  5.241596E-03  4.930188E+01  4.930713E+01  3.177409E+07  01
                       (01,03,06)  1.319141E-03  2.616189E-03  7.939721E-02  2.641034E-01
      1765 0001-01-01 02:56:30.00  5.754811E-03  4.931705E+01  4.932281E+01  3.178841E+07  02
                       (21,08,06)  8.713456E-04  2.979586E-03  6.283344E-02  3.047850E-01
      1766 0001-01-01 02:56:36.00  5.323322E-03  4.929656E+01  4.930189E+01  3.177075E+07  01
                       (01,03,06)  1.458725E-03  2.520175E-03  7.777519E-02  2.600124E-01
      1766 0001-01-01 02:56:36.00  5.219425E-03  4.932325E+01  4.932847E+01  3.179175E+07  02
                       (21,08,06)  8.868109E-04  2.977828E-03  6.281884E-02  3.042260E-01
      1767 0001-01-01 02:56:42.00  5.457746E-03  4.929115E+01  4.929661E+01  3.176742E+07  01
                       (01,03,06)  1.602927E-03  2.426705E-03  7.603774E-02  2.717231E-01
      1767 0001-01-01 02:56:42.00  4.755200E-03  4.932929E+01  4.933404E+01  3.179508E+07  02
                       (21,08,06)  9.055444E-04  2.977630E-03  6.276719E-02  3.040742E-01
      1768 0001-01-01 02:56:48.00  5.644147E-03  4.928566E+01  4.929130E+01  3.176411E+07  01
                       (01,03,06)  1.746923E-03  2.335379E-03  7.423507E-02  2.832672E-01
      1768 0001-01-01 02:56:48.00  4.380643E-03  4.933512E+01  4.933950E+01  3.179839E+07  02
                       (21,08,06)  9.266817E-04  2.978867E-03  6.269005E-02  3.042578E-01
      1769 0001-01-01 02:56:54.00  5.879145E-03  4.928011E+01  4.928599E+01  3.176083E+07  01
                       (01,03,06)  1.885771E-03  2.245360E-03  7.242288E-02  2.946671E-01
      1769 0001-01-01 02:56:54.00  4.109490E-03  4.934070E+01  4.934481E+01  3.180167E+07  02
                       (21,08,06)  9.495224E-04  2.981444E-03  6.259412E-02  3.046936E-01
      1770 0001-01-01 02:57:00.00  6.156972E-03  4.927453E+01  4.928069E+01  3.175759E+07  01
                       (01,03,06)  2.014779E-03  2.156170E-03  7.065017E-02  3.059400E-01
      1770 0001-01-01 02:57:00.00  3.949342E-03  4.934600E+01  4.934995E+01  3.180491E+07  02
                       (21,08,06)  9.733843E-04  2.985380E-03  6.248537E-02  3.052886E-01
      WRT_HIS     - wrote history     fields (Index=1,1) in record = 0000060               01
      WRT_AVG     - wrote averaged    fields             in record = 0000059               01
      WRT_RST     - wrote re-start    fields (Index=1,1) in record = 0000001               01
      WRT_HIS     - wrote history     fields (Index=1,1) in record = 0000060               02
      WRT_AVG     - wrote averaged    fields             in record = 0000059               02
      WRT_RST     - wrote re-start    fields (Index=1,1) in record = 0000001               02
      1771 0001-01-01 02:57:06.00  6.469932E-03  4.926896E+01  4.927543E+01  3.175439E+07  01
                       (01,03,06)  2.129633E-03  2.067816E-03  6.897641E-02  3.170876E-01
      1771 0001-01-01 02:57:06.00  3.900921E-03  4.935100E+01  4.935490E+01  3.180811E+07  02
                       (21,08,06)  9.976301E-04  2.990591E-03  6.237268E-02  3.059440E-01
      1772 0001-01-01 02:57:12.00  6.809278E-03  4.926344E+01  4.927025E+01  3.175127E+07  01
                       (01,15,05)  7.147432E-04  4.467854E-03  6.681321E-02  3.280904E-01
      1772 0001-01-01 02:57:12.00  3.958048E-03  4.935568E+01  4.935964E+01  3.181123E+07  02
                       (21,08,06)  1.021646E-03  2.997218E-03  6.225682E-02  3.065572E-01
      1773 0001-01-01 02:57:18.00  7.165948E-03  4.925801E+01  4.926517E+01  3.174823E+07  01
                       (01,15,05)  6.480541E-04  4.511488E-03  6.747733E-02  3.388987E-01
      1773 0001-01-01 02:57:18.00  4.108391E-03  4.936005E+01  4.936416E+01  3.181427E+07  02
                       (21,08,06)  1.044755E-03  3.003923E-03  6.214258E-02  3.070253E-01
      1774 0001-01-01 02:57:24.00  7.531452E-03  4.925271E+01  4.926024E+01  3.174529E+07  01
                       (01,15,05)  6.030443E-04  4.555581E-03  6.795645E-02  3.494327E-01
      1774 0001-01-01 02:57:24.00  4.335158E-03  4.936412E+01  4.936845E+01  3.181721E+07  02
                       (21,08,06)  1.066278E-03  3.012752E-03  6.205118E-02  3.072477E-01
      1775 0001-01-01 02:57:30.00  7.898353E-03  4.924758E+01  4.925547E+01  3.174246E+07  01
                       (01,15,05)  5.802083E-04  4.601044E-03  6.823536E-02  3.595813E-01
      1775 0001-01-01 02:57:30.00  4.618775E-03  4.936789E+01  4.937251E+01  3.182004E+07  02
                       (21,08,06)  1.085511E-03  3.022410E-03  6.197131E-02  3.071298E-01
      1776 0001-01-01 02:57:36.00  8.260636E-03  4.924266E+01  4.925092E+01  3.173977E+07  01
                       (01,15,05)  5.790214E-04  4.648235E-03  6.830660E-02  3.692053E-01
      1776 0001-01-01 02:57:36.00  4.939129E-03  4.937140E+01  4.937633E+01  3.182273E+07  02
                       (21,08,06)  1.101691E-03  3.033286E-03  6.191457E-02  3.065847E-01
      1777 0001-01-01 02:57:42.00  8.613616E-03  4.923798E+01  4.924660E+01  3.173724E+07  01
                       (01,15,05)  5.979858E-04  4.695336E-03  6.817058E-02  3.781422E-01
      1777 0001-01-01 02:57:42.00  5.277436E-03  4.937463E+01  4.937991E+01  3.182526E+07  02
                       (21,08,06)  1.114061E-03  3.045041E-03  6.189674E-02  3.059077E-01
      1778 0001-01-01 02:57:48.00  8.953740E-03  4.923359E+01  4.924254E+01  3.173486E+07  01
                       (01,15,05)  6.347688E-04  4.742549E-03  6.783753E-02  3.862155E-01
      1778 0001-01-01 02:57:48.00  5.617437E-03  4.937761E+01  4.938323E+01  3.182764E+07  02
                       (21,08,06)  1.121925E-03  3.057761E-03  6.192590E-02  3.173076E-01
      1779 0001-01-01 02:57:54.00  9.278126E-03  4.922950E+01  4.923878E+01  3.173268E+07  01
                       (01,15,05)  6.863869E-04  4.789121E-03  6.733005E-02  3.932422E-01
      1779 0001-01-01 02:57:54.00  5.946547E-03  4.938033E+01  4.938628E+01  3.182982E+07  02
                       (21,08,06)  1.124648E-03  3.068173E-03  6.201166E-02  3.266920E-01
      1780 0001-01-01 02:58:00.00  9.584194E-03  4.922575E+01  4.923534E+01  3.173069E+07  01
                       (01,15,05)  7.493679E-04  4.835001E-03  6.667272E-02  3.990458E-01
      1780 0001-01-01 02:58:00.00  6.255790E-03  4.938279E+01  4.938905E+01  3.183181E+07  02
                       (21,08,06)  1.121770E-03  3.081365E-03  6.219803E-02  3.339448E-01
      1781 0001-01-01 02:58:06.00  9.869320E-03  4.922237E+01  4.923224E+01  3.172891E+07  01
                       (01,15,05)  8.200480E-04  4.879861E-03  6.589897E-02  4.034670E-01
      1781 0001-01-01 02:58:06.00  6.539561E-03  4.938498E+01  4.939152E+01  3.183359E+07  02
                       (21,08,06)  1.113036E-03  3.094469E-03  6.244443E-02  3.389986E-01
      1782 0001-01-01 02:58:12.00  1.013071E-02  4.921937E+01  4.922950E+01  3.172736E+07  01
                       (01,15,05)  8.946383E-04  4.924174E-03  6.504337E-02  4.063752E-01
      1782 0001-01-01 02:58:12.00  6.795106E-03  4.938688E+01  4.939368E+01  3.183514E+07  02
                       (21,08,06)  1.098377E-03  3.108014E-03  6.275889E-02  3.418450E-01
      1783 0001-01-01 02:58:18.00  1.036550E-02  4.921679E+01  4.922716E+01  3.172604E+07  01
                       (01,15,05)  9.695951E-04  4.965689E-03  6.414106E-02  4.076788E-01
      1783 0001-01-01 02:58:18.00  7.021794E-03  4.938848E+01  4.939551E+01  3.183646E+07  02
                       (21,08,06)  1.077936E-03  3.122044E-03  6.314812E-02  3.425406E-01
      1784 0001-01-01 02:58:24.00  1.057095E-02  4.921465E+01  4.922522E+01  3.172497E+07  01
                       (01,15,05)  1.041702E-03  5.007508E-03  6.322334E-02  4.073320E-01
      1784 0001-01-01 02:58:24.00  7.220383E-03  4.938976E+01  4.939698E+01  3.183753E+07  02
                       (21,08,06)  1.052037E-03  3.136908E-03  6.359551E-02  3.412074E-01
      1785 0001-01-01 02:58:30.00  1.074482E-02  4.921297E+01  4.922371E+01  3.172416E+07  01
                       (01,15,05)  1.108261E-03  5.045574E-03  6.232072E-02  4.053404E-01
      1785 0001-01-01 02:58:30.00  7.392367E-03  4.939070E+01  4.939809E+01  3.183834E+07  02
                       (21,08,06)  1.021099E-03  3.151980E-03  6.409137E-02  3.380295E-01
      1786 0001-01-01 02:58:36.00  1.088572E-02  4.921176E+01  4.922265E+01  3.172360E+07  01
                       (01,03,07)  2.168770E-03  3.768636E-03  6.180064E-02  4.042519E-01
      1786 0001-01-01 02:58:36.00  7.539520E-03  4.939128E+01  4.939882E+01  3.183890E+07  02
                       (21,08,06)  9.856398E-04  3.167370E-03  6.463635E-02  3.332425E-01
      1787 0001-01-01 02:58:42.00  1.099334E-02  4.921103E+01  4.922203E+01  3.172330E+07  01
                       (01,03,07)  2.136632E-03  3.672329E-03  6.221349E-02  4.093763E-01
      1787 0001-01-01 02:58:42.00  7.663426E-03  4.939149E+01  4.939915E+01  3.183920E+07  02
                       (21,08,06)  9.462238E-04  3.183044E-03  6.521640E-02  3.271188E-01
      1788 0001-01-01 02:58:48.00  1.106851E-02  4.921080E+01  4.922186E+01  3.172327E+07  01
                       (01,03,07)  2.113743E-03  3.577561E-03  6.249317E-02  4.135197E-01
      1788 0001-01-01 02:58:48.00  7.765908E-03  4.939133E+01  4.939909E+01  3.183923E+07  02
                       (21,08,06)  9.033843E-04  3.196844E-03  6.582900E-02  3.199533E-01
      1789 0001-01-01 02:58:54.00  1.111308E-02  4.921104E+01  4.922215E+01  3.172350E+07  01
                       (01,03,07)  2.099978E-03  3.485016E-03  6.264827E-02  4.165411E-01
      1789 0001-01-01 02:58:54.00  7.848153E-03  4.939079E+01  4.939864E+01  3.183900E+07  02
                       (21,08,06)  8.576716E-04  3.212379E-03  6.649796E-02  3.120463E-01
      1790 0001-01-01 02:59:00.00  1.112956E-02  4.921174E+01  4.922287E+01  3.172397E+07  01
                       (01,03,07)  2.094521E-03  3.395109E-03  6.267033E-02  4.183268E-01
      1790 0001-01-01 02:59:00.00  7.911152E-03  4.938988E+01  4.939779E+01  3.183853E+07  02
                       (21,08,06)  8.094575E-04  3.227490E-03  6.717999E-02  3.036874E-01
      1791 0001-01-01 02:59:06.00  1.112066E-02  4.921288E+01  4.922400E+01  3.172468E+07  01
                       (01,03,07)  2.095984E-03  3.307998E-03  6.258065E-02  4.187998E-01
      1791 0001-01-01 02:59:06.00  7.955652E-03  4.938863E+01  4.939659E+01  3.183782E+07  02
                       (21,08,06)  7.593450E-04  3.242190E-03  6.788611E-02  2.952225E-01
      1792 0001-01-01 02:59:12.00  1.108873E-02  4.921443E+01  4.922552E+01  3.172559E+07  01
                       (01,03,07)  2.102491E-03  3.223235E-03  6.238403E-02  4.179252E-01
      1792 0001-01-01 02:59:12.00  7.982154E-03  4.938706E+01  4.939505E+01  3.183691E+07  02
                       (21,08,06)  7.073315E-04  3.256555E-03  6.861560E-02  3.003734E-01
      1793 0001-01-01 02:59:18.00  1.103531E-02  4.921633E+01  4.922736E+01  3.172668E+07  01
                       (01,03,07)  2.111929E-03  3.140369E-03  6.210992E-02  4.157135E-01
      1793 0001-01-01 02:59:18.00  7.990890E-03  4.938522E+01  4.939322E+01  3.183582E+07  02
                       (21,08,06)  6.539840E-04  3.270966E-03  6.935429E-02  3.060335E-01
      1794 0001-01-01 02:59:24.00  1.096070E-02  4.921852E+01  4.922948E+01  3.172792E+07  01
                       (01,03,07)  2.122047E-03  3.059125E-03  6.179172E-02  4.122193E-01
      1794 0001-01-01 02:59:24.00  7.981748E-03  4.938317E+01  4.939115E+01  3.183458E+07  02
                       (21,08,06)  5.995975E-04  3.285193E-03  7.009354E-02  3.123525E-01
      1795 0001-01-01 02:59:30.00  1.086387E-02  4.922095E+01  4.923182E+01  3.172927E+07  01
                       (01,03,07)  2.130651E-03  2.979351E-03  6.144770E-02  4.075370E-01
      1795 0001-01-01 02:59:30.00  7.954118E-03  4.938096E+01  4.938891E+01  3.183323E+07  02
                       (21,08,06)  5.445863E-04  3.296794E-03  7.083117E-02  3.186856E-01
      1796 0001-01-01 02:59:36.00  1.074250E-02  4.922355E+01  4.923429E+01  3.173068E+07  01
                       (01,03,07)  2.135794E-03  2.901365E-03  6.111083E-02  4.017943E-01
      1796 0001-01-01 02:59:36.00  7.907067E-03  4.937868E+01  4.938659E+01  3.183182E+07  02
                       (21,08,06)  4.894116E-04  3.309347E-03  7.157339E-02  3.249698E-01
      1797 0001-01-01 02:59:42.00  1.059330E-02  4.922623E+01  4.923683E+01  3.173211E+07  01
                       (01,03,07)  2.135884E-03  2.825678E-03  6.080471E-02  3.951427E-01
      1797 0001-01-01 02:59:42.00  7.838964E-03  4.937641E+01  4.938424E+01  3.183039E+07  02
                       (21,08,06)  4.347136E-04  3.320318E-03  7.228265E-02  3.311057E-01
      1798 0001-01-01 02:59:48.00  1.041250E-02  4.922894E+01  4.923935E+01  3.173351E+07  01
                       (01,03,07)  2.129802E-03  2.752809E-03  6.054743E-02  3.877487E-01
      1798 0001-01-01 02:59:48.00  7.747798E-03  4.937422E+01  4.938197E+01  3.182899E+07  02
                       (21,08,06)  3.812304E-04  3.330418E-03  7.295687E-02  3.370047E-01
      1799 0001-01-01 02:59:54.00  1.019642E-02  4.923160E+01  4.924179E+01  3.173484E+07  01
                       (01,03,07)  2.116972E-03  2.683594E-03  6.036209E-02  3.797840E-01
      1799 0001-01-01 02:59:54.00  7.631301E-03  4.937221E+01  4.937984E+01  3.182766E+07  02
                       (21,08,06)  3.298901E-04  3.340049E-03  7.358433E-02  3.425571E-01
      1800 0001-01-01 03:00:00.00  9.941982E-03  4.923414E+01  4.924408E+01  3.173605E+07  01
                       (01,03,07)  2.097402E-03  2.618826E-03  6.024760E-02  3.714179E-01
      1800 0001-01-01 03:00:00.00  7.487077E-03  4.937045E+01  4.937794E+01  3.182645E+07  02
                       (21,08,06)  2.818525E-04  3.348625E-03  7.416246E-02  3.476402E-01
      WRT_HIS     - wrote history     fields (Index=1,1) in record = 0000061               01
      WRT_AVG     - wrote averaged    fields             in record = 0000060               01
      WRT_RST     - wrote re-start    fields (Index=1,1) in record = 0000002               01
      WRT_HIS     - wrote history     fields (Index=1,1) in record = 0000061               02
      WRT_AVG     - wrote averaged    fields             in record = 0000060               02
      WRT_RST     - wrote re-start    fields (Index=1,1) in record = 0000002               02

 Elapsed CPU time (seconds):

 Thread #  0 CPU:      15.943
 Total:                15.943

 Nonlinear model elapsed CPU time profile, Grid: 01

  Processing of output time averaged data ..........         0.031  ( 0.1957 %)
  Computation of vertical boundary conditions ......         0.016  ( 0.0978 %)
  Computation of global information integrals ......         0.343  ( 2.1526 %)
  Writing of output data ...........................         0.094  ( 0.5871 %)
  Model 2D kernel ..................................         2.574  (16.1448 %)
  2D/3D coupling, vertical metrics .................         0.047  ( 0.2935 %)
  Omega vertical velocity ..........................         0.016  ( 0.0978 %)
  Equation of state for seawater ...................         0.062  ( 0.3914 %)
  GLS vertical mixing parameterization .............         3.026  (18.9824 %)
  3D equations right-side terms ....................         0.187  ( 1.1742 %)
  3D equations predictor step ......................         0.187  ( 1.1742 %)
  Pressure gradient ................................         0.187  ( 1.1742 %)
  Corrector time-step for 3D momentum ..............         0.265  ( 1.6634 %)
  Corrector time-step for tracers ..................         0.234  ( 1.4677 %)
  Nesting algorithm ................................         0.515  ( 3.2290 %)
                                              Total:         7.784   48.8258

 Nonlinear model elapsed CPU time profile, Grid: 02

  Processing of output time averaged data ..........         0.062  ( 0.3914 %)
  Computation of global information integrals ......         0.296  ( 1.8591 %)
  Writing of output data ...........................         0.031  ( 0.1957 %)
  Model 2D kernel ..................................         2.215  (13.8944 %)
  2D/3D coupling, vertical metrics .................         0.062  ( 0.3914 %)
  Omega vertical velocity ..........................         0.047  ( 0.2935 %)
  Equation of state for seawater ...................         0.078  ( 0.4892 %)
  GLS vertical mixing parameterization .............         3.104  (19.4717 %)
  3D equations right-side terms ....................         0.218  ( 1.3699 %)
  3D equations predictor step ......................         0.265  ( 1.6634 %)
  Pressure gradient ................................         0.218  ( 1.3699 %)
  Corrector time-step for 3D momentum ..............         0.328  ( 2.0548 %)
  Corrector time-step for tracers ..................         0.296  ( 1.8591 %)
  Nesting algorithm ................................         0.577  ( 3.6203 %)
                                              Total:         7.800   48.9237

  Unique code regions profiled .....................        15.585   97.7495 %
  Residual, non-profiled code ......................         0.359    2.2505 %


 All percentages are with respect to total time =           15.943


 ROMS/TOMS - Output NetCDF summary for Grid 01:
             number of time records written in HISTORY file = 00000061
             number of time records written in RESTART file = 00000002
             number of time records written in AVERAGE file = 00000060

 ROMS/TOMS - Output NetCDF summary for Grid 02:
             number of time records written in HISTORY file = 00000061
             number of time records written in RESTART file = 00000002
             number of time records written in AVERAGE file = 00000060

 Analytical header files used:

     ROMS/Functionals/ana_btflux.h
     ROMS/Functionals/ana_smflux.h
     ROMS/Functionals/ana_stflux.h

 ROMS/TOMS: DONE... Thursday - November 30, 2017 -  9:48:25 AM
