--------------------------------------------------------------------------------
 Model Input Parameters:  ROMS/TOMS version 3.7  
                          Thursday - November 30, 2017 -  9:40:21 AM
 --------------------------------------------------------------------------------

 Dog-bone Nesting Test Case: Whole Grid

 Operating system : CYGWIN
 CPU/hardware     : x86_64
 Compiler system  : gfortran
 Compiler command : /usr/bin/gfortran
 Compiler flags   : -frepack-arrays -O3 -ffast-math -fno-bounds-check -ffree-form -ffree-line-length-none -ffree-form -ffree-line-length-none

 SVN Root URL  : https:://myroms.org/svn/src
 SVN Revision  : Unversioned directory

 Local Root    : /home/hadfield/ROMS/roms-trunk-mgh
 Header Dir    : /home/hadfield/ROMS/roms-test-mgh/dogbone/Whole
 Header file   : dogbone.h
 Analytical Dir: /home/hadfield/ROMS/roms-test-mgh/dogbone/Whole

 Resolution, Grid 01: 0042x0015x010,  Parallel Threads:  1,  Tiling: 001x001


 Physical Parameters, Grid: 01
 =============================

       1800  ntimes            Number of timesteps for 3-D equations.
      6.000  dt                Timestep size (s) for 3-D equations.
         20  ndtfast           Number of timesteps for 2-D equations between
                                 each 3D timestep.
          1  ERstr             Starting ensemble/perturbation run number.
          1  ERend             Ending ensemble/perturbation run number.
          0  nrrec             Number of restart records to read from disk.
          T  LcycleRST         Switch to recycle time-records in restart file.
         30  nRST              Number of timesteps between the writing of data
                                 into restart fields.
          1  ninfo             Number of timesteps between print of information
                                 to standard output.
          T  ldefout           Switch to create a new output NetCDF file(s).
         30  nHIS              Number of timesteps between the writing fields
                                 into history file.
          0  nQCK              Number of timesteps between the writing fields
                                 into quicksave file.
          1  ntsAVG            Starting timestep for the accumulation of output
                                 time-averaged data.
         30  nAVG              Number of timesteps between the writing of
                                 time-averaged data into averages file.
          F  LuvSponge         Turning OFF sponge on horizontal momentum.
          F  LtracerSponge(01) Turning OFF sponge on tracer 01: temp
          F  LtracerSponge(02) Turning OFF sponge on tracer 02: salt
 1.0000E-06  Akt_bak(01)       Background vertical mixing coefficient (m2/s)
                                 for tracer 01: temp
 1.0000E-06  Akt_bak(02)       Background vertical mixing coefficient (m2/s)
                                 for tracer 02: salt
 1.0000E-05  Akv_bak           Background vertical mixing coefficient (m2/s)
                                 for momentum.
 5.0000E-06  Akk_bak           Background vertical mixing coefficient (m2/s)
                                 for turbulent energy.
 5.0000E-06  Akp_bak           Background vertical mixing coefficient (m2/s)
                                 for turbulent generic statistical field.
      3.000  gls_p             GLS stability exponent.
      1.500  gls_m             GLS turbulent kinetic energy exponent.
     -1.000  gls_n             GLS turbulent length scale exponent.
 7.6000E-06  gls_Kmin          GLS minimum value of turbulent kinetic energy.
 1.0000E-12  gls_Pmin          GLS minimum value of dissipation.
 5.4770E-01  gls_cmu0          GLS stability coefficient.
 1.4400E+00  gls_c1            GLS shear production coefficient.
 1.9200E+00  gls_c2            GLS dissipation coefficient.
-4.0000E-01  gls_c3m           GLS stable buoyancy production coefficient.
 1.0000E+00  gls_c3p           GLS unstable buoyancy production coefficient.
 1.0000E+00  gls_sigk          GLS constant Schmidt number for TKE.
 1.3000E+00  gls_sigp          GLS constant Schmidt number for PSI.
   1400.000  charnok_alpha     Charnok factor for Zos calculation.
      0.500  zos_hsig_alpha    Factor for Zos calculation using Hsig(Awave).
      0.250  sz_alpha          Factor for Wave dissipation surface tke flux .
    100.000  crgban_cw         Factor for Craig/Banner surface tke flux.
 3.0000E-04  rdrg              Linear bottom drag coefficient (m/s).
 3.0000E-03  rdrg2             Quadratic bottom drag coefficient.
 2.0000E-02  Zob               Bottom roughness (m).
 2.0000E-02  Zos               Surface roughness (m).
          2  Vtransform        S-coordinate transformation equation.
          4  Vstretching       S-coordinate stretching function.
 0.0000E+00  theta_s           S-coordinate surface control parameter.
 0.0000E+00  theta_b           S-coordinate bottom  control parameter.
 1.0000E+16  Tcline            S-coordinate surface/bottom layer width (m) used
                                 in vertical coordinate stretching.
   1025.000  rho0              Mean density (kg/m3) for Boussinesq approximation.
      0.000  dstart            Time-stamp assigned to model initialization (days).
       0.00  time_ref          Reference time for units attribute (yyyymmdd.dd)
 0.0000E+00  Tnudg(01)         Nudging/relaxation time scale (days)
                                 for tracer 01: temp
 0.0000E+00  Tnudg(02)         Nudging/relaxation time scale (days)
                                 for tracer 02: salt
 0.0000E+00  Znudg             Nudging/relaxation time scale (days)
                                 for free-surface.
 0.0000E+00  M2nudg            Nudging/relaxation time scale (days)
                                 for 2D momentum.
 0.0000E+00  M3nudg            Nudging/relaxation time scale (days)
                                 for 3D momentum.
 0.0000E+00  obcfac            Factor between passive and active
                                 open boundary conditions.
          F  VolCons(1)        NLM western  edge boundary volume conservation.
          F  VolCons(2)        NLM southern edge boundary volume conservation.
          F  VolCons(3)        NLM eastern  edge boundary volume conservation.
          F  VolCons(4)        NLM northern edge boundary volume conservation.
     10.000  T0                Background potential temperature (C) constant.
     35.000  S0                Background salinity (PSU) constant.
   1027.000  R0                Background density (kg/m3) used in linear Equation
                                 of State.
 1.7000E-04  Tcoef             Thermal expansion coefficient (1/Celsius).
 7.6000E-04  Scoef             Saline contraction coefficient (1/PSU).
      1.000  gamma2            Slipperiness variable: free-slip (1.0) or 
                                                      no-slip (-1.0).
          F  LuvSrc            Turning OFF momentum point Sources/Sinks.
          F  LwSrc             Turning OFF volume influx point Sources/Sinks.
          F  LtracerSrc(01)    Turning OFF point Sources/Sinks on tracer 01: temp
          F  LtracerSrc(02)    Turning OFF point Sources/Sinks on tracer 02: salt
          F  LsshCLM           Turning OFF processing of SSH climatology.
          F  Lm2CLM            Turning OFF processing of 2D momentum climatology.
          F  Lm3CLM            Turning OFF processing of 3D momentum climatology.
          F  LtracerCLM(01)    Turning OFF processing of climatology tracer 01: temp
          F  LtracerCLM(02)    Turning OFF processing of climatology tracer 02: salt
          F  LnudgeM2CLM       Turning OFF nudging of 2D momentum climatology.
          F  LnudgeM3CLM       Turning OFF nudging of 3D momentum climatology.
          F  LnudgeTCLM(01)    Turning OFF nudging of climatology tracer 01: temp
          F  LnudgeTCLM(02)    Turning OFF nudging of climatology tracer 02: salt

          T  Hout(idFsur)      Write out free-surface.
          T  Hout(idUbar)      Write out 2D U-momentum component.
          T  Hout(idVbar)      Write out 2D V-momentum component.
          T  Hout(idUvel)      Write out 3D U-momentum component.
          T  Hout(idVvel)      Write out 3D V-momentum component.
          T  Hout(idWvel)      Write out W-momentum component.
          T  Hout(idOvel)      Write out omega vertical velocity.
          T  Hout(idTvar)      Write out tracer 01: temp
          T  Hout(idTvar)      Write out tracer 02: salt

          T  Aout(idFsur)      Write out averaged free-surface.
          T  Aout(idUbar)      Write out averaged 2D U-momentum component.
          T  Aout(idVbar)      Write out averaged 2D V-momentum component.
          T  Aout(idUvel)      Write out averaged 3D U-momentum component.
          T  Aout(idVvel)      Write out averaged 3D V-momentum component.
          T  Aout(idOvel)      Write out averaged omega vertical velocity.
          T  Aout(idTvar)      Write out averaged tracer 01: temp
          T  Aout(idTvar)      Write out averaged tracer 02: salt

 Output/Input Files:

             Output Restart File:  dogbone_rst_whole.nc
             Output History File:  dogbone_his_whole.nc
            Output Averages File:  dogbone_avg_whole.nc
                 Input Grid File:  ../Data/dogbone_grd_whole.nc
    Input Nonlinear Initial File:  ../Data/dogbone_ini_whole.nc

 Tile partition information for Grid 01:  0042x0015x0010  tiling: 001x001

     tile     Istr     Iend     Jstr     Jend     Npts

        0        1       42        1       15     6300

 Tile minimum and maximum fractional coordinates for Grid 01:
   (interior points only)

     tile     Xmin     Xmax     Ymin     Ymax     grid

        0     0.50    43.50     0.50    15.50  RHO-points

        0     0.00    43.00     0.50    15.50    U-points

        0     0.50    43.50     0.00    15.00    V-points

 Lateral Boundary Conditions: NLM
 ============================

 Variable               Grid  West Edge    South Edge   East Edge    North Edge
 ---------              ----  ----------   ----------   ----------   ----------

 zeta                     1   Closed       Closed       Closed       Closed

 ubar                     1   Closed       Closed       Closed       Closed

 vbar                     1   Closed       Closed       Closed       Closed

 u                        1   Closed       Closed       Closed       Closed

 v                        1   Closed       Closed       Closed       Closed

 temp                     1   Closed       Closed       Closed       Closed

 salt                     1   Closed       Closed       Closed       Closed

 tke                      1   Closed       Closed       Closed       Closed

 Activated C-preprocessing Options:

 DOGBONE             Dog-bone Nesting Test Case: Whole Grid
 ANA_BSFLUX          Analytical kinematic bottom salinity flux.
 ANA_BTFLUX          Analytical kinematic bottom temperature flux.
 ANA_SMFLUX          Analytical kinematic surface momentum flux.
 ANA_SSFLUX          Analytical kinematic surface salinity flux.
 ANA_STFLUX          Analytical kinematic surface temperature flux.
 ASSUMED_SHAPE       Using assumed-shape arrays.
 AVERAGES            Writing out time-averaged nonlinear model fields.
 DJ_GRADPS           Parabolic Splines density Jacobian (Shchepetkin, 2002).
 DOUBLE_PRECISION    Double precision arithmetic.
 GLS_MIXING          Generic Length-Scale turbulence closure.
 KANTHA_CLAYSON      Kantha and Clayson stability function formulation.
 MASKING             Land/Sea masking.
 NONLINEAR           Nonlinear Model.
 !NONLIN_EOS         Linear Equation of State for seawater.
 N2S2_HORAVG         Horizontal smoothing of buoyancy and shear.
 OUT_DOUBLE          Double precision output fields in NetCDF files.
 POWER_LAW           Power-law shape time-averaging barotropic filter.
 PROFILE             Time profiling activated .
 K_GSCHEME           Third-order upstream advection of TKE fields.
 !RST_SINGLE         Double precision fields in restart NetCDF file.
 SALINITY            Using salinity.
 SOLVE3D             Solving 3D Primitive Equations.
 SPLINES_VDIFF       Parabolic Spline Reconstruction for Vertical Diffusion.
 SPLINES_VVISC       Parabolic Spline Reconstruction for Vertical Viscosity.
 TS_U3HADVECTION     Third-order upstream horizontal advection of tracers.
 TS_C4VADVECTION     Fourth-order centered vertical advection of tracers.
 UV_ADV              Advection of momentum.
 UV_U3HADVECTION     Third-order upstream horizontal advection of 3D momentum.
 UV_C4VADVECTION     Fourth-order centered vertical advection of momentum.
 UV_QDRAG            Quadratic bottom stress.
 VAR_RHO_2D          Variable density barotropic mode.

 Process Information:

 Thread #  0 (pid=       0) is active.

 INITIAL: Configuring and initializing forward nonlinear model ...
 *******

    GET_GRID    - angle between XI-axis and EAST: angler
                   (Grid = 01, File: ../Data/dogbone_grd_whole.nc)
                   (Min =  0.00000000E+00 Max =  0.00000000E+00)
    GET_GRID    - reciprocal XI-grid spacing: pm
                   (Grid = 01, File: ../Data/dogbone_grd_whole.nc)
                   (Min =  5.00000000E-03 Max =  5.00000000E-03)
    GET_GRID    - reciprocal ETA-grid spacing: pn
                   (Grid = 01, File: ../Data/dogbone_grd_whole.nc)
                   (Min =  2.00000000E-02 Max =  2.00000000E-02)
    GET_GRID    - Coriolis parameter at RHO-points: f
                   (Grid = 01, File: ../Data/dogbone_grd_whole.nc)
                   (Min =  1.45800000E-04 Max =  1.45800000E-04)
    GET_GRID    - bathymetry at RHO-points: h
                   (Grid = 01, File: ../Data/dogbone_grd_whole.nc)
                   (Min =  1.00000000E+01 Max =  1.00000000E+01)
    GET_GRID    - x-location of RHO-points: x-rho
                   (Grid = 01, File: ../Data/dogbone_grd_whole.nc)
                   (Min = -1.00000000E+02 Max =  8.50000000E+03)
    GET_GRID    - y-location of RHO-points: y_rho
                   (Grid = 01, File: ../Data/dogbone_grd_whole.nc)
                   (Min = -2.50000000E+01 Max =  7.75000000E+02)
    GET_GRID    - x-location of PSI-points: x_psi
                   (Grid = 01, File: ../Data/dogbone_grd_whole.nc)
                   (Min =  0.00000000E+00 Max =  8.40000000E+03)
    GET_GRID    - y-location of PSI-points: y-psi
                   (Grid = 01, File: ../Data/dogbone_grd_whole.nc)
                   (Min =  0.00000000E+00 Max =  7.50000000E+02)
    GET_GRID    - x-location of U-points: x_u
                   (Grid = 01, File: ../Data/dogbone_grd_whole.nc)
                   (Min =  0.00000000E+00 Max =  8.40000000E+03)
    GET_GRID    - y-location of U-points: y_u
                   (Grid = 01, File: ../Data/dogbone_grd_whole.nc)
                   (Min = -2.50000000E+01 Max =  7.75000000E+02)
    GET_GRID    - x-location of V-points: x_v
                   (Grid = 01, File: ../Data/dogbone_grd_whole.nc)
                   (Min = -1.00000000E+02 Max =  8.50000000E+03)
    GET_GRID    - y-location of V-points: y_v
                   (Grid = 01, File: ../Data/dogbone_grd_whole.nc)
                   (Min =  0.00000000E+00 Max =  7.50000000E+02)
    GET_GRID    - mask on RHO-points: mask_rho
                   (Grid = 01, File: ../Data/dogbone_grd_whole.nc)
                   (Min =  0.00000000E+00 Max =  1.00000000E+00)
    GET_GRID    - mask on PSI-points: mask_psi
                   (Grid = 01, File: ../Data/dogbone_grd_whole.nc)
                   (Min =  0.00000000E+00 Max =  1.00000000E+00)
    GET_GRID    - mask on U-points: mask_u
                   (Grid = 01, File: ../Data/dogbone_grd_whole.nc)
                   (Min =  0.00000000E+00 Max =  1.00000000E+00)
    GET_GRID    - mask on V-points: mask_v
                   (Grid = 01, File: ../Data/dogbone_grd_whole.nc)
                   (Min =  0.00000000E+00 Max =  1.00000000E+00)

 Vertical S-coordinate System, Grid 01:

 level   S-coord     Cs-curve   Z   at hmin       at hc    half way     at hmax

    10   0.0000000   0.0000000        0.000       0.000       0.000       0.000
     9  -0.1000000  -0.0100000       -1.000      -1.000      -1.000      -1.000
     8  -0.2000000  -0.0400000       -2.000      -2.000      -2.000      -2.000
     7  -0.3000000  -0.0900000       -3.000      -3.000      -3.000      -3.000
     6  -0.4000000  -0.1600000       -4.000      -4.000      -4.000      -4.000
     5  -0.5000000  -0.2500000       -5.000      -5.000      -5.000      -5.000
     4  -0.6000000  -0.3600000       -6.000      -6.000      -6.000      -6.000
     3  -0.7000000  -0.4900000       -7.000      -7.000      -7.000      -7.000
     2  -0.8000000  -0.6400000       -8.000      -8.000      -8.000      -8.000
     1  -0.9000000  -0.8100000       -9.000      -9.000      -9.000      -9.000
     0  -1.0000000  -1.0000000      -10.000     -10.000     -10.000     -10.000

 Time Splitting Weights for Grid 01:    ndtfast =  20    nfast =  29
 ==================================

    Primary            Secondary            Accumulated to Current Step

  1-0.0009651193358779 0.0500000000000000-0.0009651193358779 0.0500000000000000
  2-0.0013488780126037 0.0500482559667939-0.0023139973484816 0.1000482559667939
  3-0.0011514592651644 0.0501156998674241-0.0034654566136460 0.1501639558342180
  4-0.0003735756740661 0.0501732728306823-0.0038390322877122 0.2003372286649003
  5 0.0009829200513762 0.0501919516143856-0.0028561122363360 0.2505291802792859
  6 0.0029141799764308 0.0501428056118168 0.0000580677400949 0.3006719858911027
  7 0.0054132615310267 0.0499970966129953 0.0054713292711215 0.3506690825040980
  8 0.0084687837865133 0.0497264335364439 0.0139401130576348 0.4003955160405419
  9 0.0120633394191050 0.0493029943471183 0.0260034524767398 0.4496985103876601
 10 0.0161716623600090 0.0486998273761630 0.0421751148367488 0.4983983377638231
 11 0.0207585511322367 0.0478912442581626 0.0629336659689855 0.5462895820219857
 12 0.0257765478740990 0.0468533167015507 0.0887102138430846 0.5931428987235364
 13 0.0311633730493853 0.0455644893078458 0.1198735868924699 0.6387073880313822
 14 0.0368391158442262 0.0440063206553765 0.1567127027366961 0.6827137086867586
 15 0.0427031802506397 0.0421643648631652 0.1994158829873358 0.7248780735499238
 16 0.0486309868367616 0.0400292058506332 0.2480468698240974 0.7649072794005570
 17 0.0544704302037592 0.0375976565087951 0.3025173000278565 0.8025049359093521
 18 0.0600380921294286 0.0348741349986072 0.3625553921572851 0.8373790709079593
 19 0.0651152103984763 0.0318722303921357 0.4276706025557614 0.8692513013000950
 20 0.0694434033194839 0.0286164698722119 0.4971140058752453 0.8978677711723069
 21 0.0727201499285570 0.0251442997062377 0.5698341558038023 0.9230120708785446
 22 0.0745940258796570 0.0215082922098099 0.6444281816834592 0.9445203630883545
 23 0.0746596950216179 0.0177785909158270 0.7190878767050771 0.9622989540041815
 24 0.0724526566618460 0.0140456061647461 0.7915405333669231 0.9763445601689277
 25 0.0674437485167025 0.0104229733316538 0.8589842818836255 0.9867675335005816
 26 0.0590334053485720 0.0070507859058187 0.9180176872321975 0.9938183194064003
 27 0.0465456732896125 0.0040991156383901 0.9645633605218099 0.9979174350447905
 28 0.0292219798521905 0.0017718319739095 0.9937853403740003 0.9996892670187000
 29 0.0062146596259993 0.0003107329813000 0.9999999999999997 1.0000000000000000

 ndtfast, nfast =   20  29   nfast/ndtfast =  1.45000

 Centers of gravity and integrals (values must be 1, 1, approx 1/2, 1, 1):

    1.000000000000 1.060707743385 0.530353871693 1.000000000000 1.000000000000

 Power filter parameters, Fgamma, gamma =  0.28400   0.14200

 Metrics information for Grid 01:
 ===============================

 Minimum X-grid spacing, DXmin =  2.00000000E-01 km
 Maximum X-grid spacing, DXmax =  2.00000000E-01 km
 Minimum Y-grid spacing, DYmin =  5.00000000E-02 km
 Maximum Y-grid spacing, DYmax =  5.00000000E-02 km
 Minimum Z-grid spacing, DZmin =  1.00000000E+00 m
 Maximum Z-grid spacing, DZmax =  1.00000000E+00 m

 Minimum barotropic Courant Number =  6.12562242E-02
 Maximum barotropic Courant Number =  6.12562242E-02
 Maximum Coriolis   Courant Number =  8.74800000E-04


 NLM: GET_STATE - Reading state initial conditions,                0001-01-01 00:00:00.00
                   (Grid 01, t = 0.0000, File: dogbone_ini_whole.nc, Rec=0001, Index=1)
                - free-surface
                   (Min =  0.00000000E+00 Max =  1.50000000E+00)
                - vertically integrated u-momentum component
                   (Min =  0.00000000E+00 Max =  0.00000000E+00)
                - vertically integrated v-momentum component
                   (Min =  0.00000000E+00 Max =  0.00000000E+00)
                - u-momentum component
                   (Min =  0.00000000E+00 Max =  0.00000000E+00)
                - v-momentum component
                   (Min =  0.00000000E+00 Max =  0.00000000E+00)
                - potential temperature
                   (Min =  5.00000000E+00 Max =  1.00000000E+01)
                - salinity
                   (Min =  3.50000000E+01 Max =  3.50000000E+01)

 Basin information for Grid 01:

 Maximum grid stiffness ratios:  rx0 =   0.000000E+00 (Beckmann and Haidvogel)
                                 rx1 =   8.881784E-16 (Haney)

 Initial domain volumes:  TotVolume =  4.9000000000E+07 m3
                         MinCellVol =  1.0000000000E+04 m3
                         MaxCellVol =  1.0000000000E+04 m3
                            Max/Min =  1.0000000000E+00

 NL ROMS/TOMS: started time-stepping: (Grid: 01 TimeSteps: 000000000001 - 000000001800)


 TIME-STEP YYYY-MM-DD hh:mm:ss.ss  KINETIC_ENRG   POTEN_ENRG    TOTAL_ENRG    NET_VOLUME
                     C => (i,j,k)       Cu            Cv            Cw         Max Speed

         0 0001-01-01 00:00:00.00  0.000000E+00  4.938140E+01  4.938140E+01  6.356250E+07
                       (00,00,00)  0.000000E+00  0.000000E+00  0.000000E+00  0.000000E+00
      DEF_HIS     - creating  history      file, Grid 01: dogbone_his_whole.nc
      WRT_HIS     - wrote history     fields (Index=1,1) in record = 0000001
      DEF_AVG     - creating  average      file, Grid 01: dogbone_avg_whole.nc
      DEF_RST   - creating restart file: dogbone_rst_whole.nc
         1 0001-01-01 00:00:06.00  3.384202E-04  4.938069E+01  4.938102E+01  6.356250E+07
                       (05,01,01)  2.230237E-03  8.142445-101  0.000000E+00  7.434332E-02
         2 0001-01-01 00:00:12.00  1.304633E-03  4.937872E+01  4.938002E+01  6.356250E+07
                       (06,01,10)  2.243361E-03  4.406118E-28  2.060240E-02  1.475222E-01
         3 0001-01-01 00:00:18.00  2.777280E-03  4.937574E+01  4.937852E+01  6.356250E+07
                       (01,02,10)  2.839954E-03  6.057353E-18  3.931669E-02  2.209146E-01
         4 0001-01-01 00:00:24.00  4.612198E-03  4.937205E+01  4.937666E+01  6.356250E+07
                       (01,02,10)  3.380326E-03  2.851051E-17  5.428736E-02  2.932411E-01
         5 0001-01-01 00:00:30.00  6.678100E-03  4.936789E+01  4.937457E+01  6.356250E+07
                       (01,01,10)  3.677082E-03  9.589096E-18  6.465580E-02  3.631635E-01
         6 0001-01-01 00:00:36.00  8.859897E-03  4.936350E+01  4.937236E+01  6.356250E+07
                       (01,01,10)  3.766059E-03  9.071995E-20  7.033730E-02  4.287959E-01
         7 0001-01-01 00:00:42.00  1.104332E-02  4.935911E+01  4.937015E+01  6.356250E+07
                       (01,13,10)  3.709362E-03  2.277547E-17  7.201418E-02  4.878246E-01
         8 0001-01-01 00:00:48.00  1.310869E-02  4.935494E+01  4.936805E+01  6.356250E+07
                       (01,07,10)  3.578168E-03  1.347471E-17  7.088547E-02  5.377440E-01
         9 0001-01-01 00:00:54.00  1.494611E-02  4.935122E+01  4.936617E+01  6.356250E+07
                       (02,04,10)  1.066521E-02  1.131676E-17  6.657075E-02  5.761854E-01
        10 0001-01-01 00:01:00.00  1.648019E-02  4.934811E+01  4.936459E+01  6.356250E+07
                       (02,07,10)  1.052274E-02  4.634016E-18  7.237607E-02  6.013163E-01
        11 0001-01-01 00:01:06.00  1.768417E-02  4.934565E+01  4.936333E+01  6.356250E+07
                       (02,13,10)  1.027603E-02  4.132087E-17  7.376314E-02  6.122564E-01
        12 0001-01-01 00:01:12.00  1.857572E-02  4.934381E+01  4.936238E+01  6.356250E+07
                       (02,07,10)  9.965875E-03  1.496919E-18  7.119441E-02  6.093872E-01
        13 0001-01-01 00:01:18.00  1.920118E-02  4.934250E+01  4.936170E+01  6.356250E+07
                       (02,06,10)  9.608661E-03  6.739568E-18  6.571072E-02  5.943991E-01
        14 0001-01-01 00:01:24.00  1.961834E-02  4.934161E+01  4.936122E+01  6.356250E+07
                       (02,08,10)  9.197084E-03  1.106460E-17  5.857474E-02  5.980644E-01
        15 0001-01-01 00:01:30.00  1.988212E-02  4.934102E+01  4.936090E+01  6.356250E+07
                       (01,12,10)  3.192112E-03  4.402963E-17  6.186265E-02  6.034342E-01
        16 0001-01-01 00:01:36.00  2.003485E-02  4.934065E+01  4.936069E+01  6.356250E+07
                       (01,13,10)  3.059962E-03  4.853695E-17  6.075280E-02  5.982639E-01
        17 0001-01-01 00:01:42.00  2.010367E-02  4.934045E+01  4.936056E+01  6.356250E+07
                       (01,03,10)  2.835466E-03  1.107621E-17  5.818839E-02  5.986034E-01
        18 0001-01-01 00:01:48.00  2.010709E-02  4.934038E+01  4.936049E+01  6.356250E+07
                       (04,12,10)  1.263197E-02  9.759198E-18  4.602123E-02  6.036298E-01
        19 0001-01-01 00:01:54.00  2.006572E-02  4.934040E+01  4.936047E+01  6.356250E+07
                       (04,09,10)  1.148580E-02  1.358446E-17  4.857240E-02  5.994718E-01
        20 0001-01-01 00:02:00.00  2.000664E-02  4.934046E+01  4.936046E+01  6.356250E+07
                       (04,10,10)  1.039567E-02  2.847460E-17  4.628606E-02  5.889812E-01
        21 0001-01-01 00:02:06.00  1.995624E-02  4.934049E+01  4.936045E+01  6.356250E+07
                       (10,01,10)  9.222601E-03  1.713506E-11  4.898419E-02  5.960186E-01
        22 0001-01-01 00:02:12.00  1.992787E-02  4.934048E+01  4.936041E+01  6.356250E+07
                       (10,01,10)  1.062556E-02  5.538949E-11  4.790519E-02  5.937387E-01
        23 0001-01-01 00:02:18.00  1.991729E-02  4.934043E+01  4.936035E+01  6.356250E+07
                       (10,01,10)  1.193715E-02  1.656701E-10  4.421186E-02  5.820317E-01
        24 0001-01-01 00:02:24.00  1.991067E-02  4.934038E+01  4.936029E+01  6.356250E+07
                       (11,15,10)  8.775085E-03  5.985951E-09  4.862411E-02  5.903162E-01
        25 0001-01-01 00:02:30.00  1.989732E-02  4.934034E+01  4.936024E+01  6.356250E+07
                       (11,01,10)  1.023835E-02  1.458682E-08  4.936375E-02  5.907792E-01
        26 0001-01-01 00:02:36.00  1.987536E-02  4.934031E+01  4.936019E+01  6.356250E+07
                       (11,15,10)  1.163182E-02  3.352463E-08  4.732565E-02  5.819167E-01
        27 0001-01-01 00:02:42.00  1.984742E-02  4.934030E+01  4.936015E+01  6.356250E+07
                       (12,01,10)  8.304058E-03  6.715879E-07  4.755717E-02  5.847423E-01
        28 0001-01-01 00:02:48.00  1.981326E-02  4.934030E+01  4.936011E+01  6.356250E+07
                       (12,01,10)  9.796052E-03  1.311331E-06  4.984606E-02  5.873900E-01
        29 0001-01-01 00:02:54.00  1.976648E-02  4.934032E+01  4.936008E+01  6.356250E+07
                       (12,01,10)  1.124144E-02  2.444820E-06  4.949218E-02  5.813130E-01
        30 0001-01-01 00:03:00.00  1.969520E-02  4.934039E+01  4.936008E+01  6.356250E+07
                       (12,01,10)  1.257760E-02  4.363421E-06  4.651187E-02  5.794345E-01
      WRT_HIS     - wrote history     fields (Index=1,1) in record = 0000002
      WRT_AVG     - wrote averaged    fields             in record = 0000001
      WRT_RST     - wrote re-start    fields (Index=1,1) in record = 0000001
        31 0001-01-01 00:03:06.00  1.958222E-02  4.934054E+01  4.936012E+01  6.356250E+07
                       (13,02,10)  8.941238E-03  1.349550E-04  5.222813E-02  5.832000E-01
        32 0001-01-01 00:03:12.00  1.940303E-02  4.934083E+01  4.936023E+01  6.356250E+07
                       (13,02,10)  1.023424E-02  2.118626E-04  5.458849E-02  5.791572E-01
        33 0001-01-01 00:03:18.00  1.912537E-02  4.934131E+01  4.936043E+01  6.356250E+07
                       (14,03,10)  4.275981E-03  2.366924E-03  6.130366E-02  5.743700E-01
        34 0001-01-01 00:03:24.00  1.871428E-02  4.934206E+01  4.936077E+01  6.356250E+07
                       (14,05,10)  5.074358E-03  7.388330E-03  6.549031E-02  5.776850E-01
        35 0001-01-01 00:03:30.00  1.814187E-02  4.934313E+01  4.936127E+01  6.356250E+07
                       (14,06,10)  1.051482E-02  8.859959E-03  6.762282E-02  5.736738E-01
        36 0001-01-01 00:03:36.00  1.739657E-02  4.934455E+01  4.936195E+01  6.356250E+07
                       (14,06,10)  1.201697E-02  1.133762E-02  7.053217E-02  5.616081E-01
        37 0001-01-01 00:03:42.00  1.648753E-02  4.934630E+01  4.936279E+01  6.356250E+07
                       (14,06,10)  1.340027E-02  1.407963E-02  7.032991E-02  5.539069E-01
        38 0001-01-01 00:03:48.00  1.544444E-02  4.934832E+01  4.936376E+01  6.356250E+07
                       (14,06,10)  1.460583E-02  1.697121E-02  6.691522E-02  5.415992E-01
        39 0001-01-01 00:03:54.00  1.431576E-02  4.935050E+01  4.936482E+01  6.356250E+07
                       (14,06,10)  1.559238E-02  1.986278E-02  6.058680E-02  5.542015E-01
        40 0001-01-01 00:04:00.00  1.316660E-02  4.935273E+01  4.936590E+01  6.356250E+07
                       (14,06,10)  1.633937E-02  2.258715E-02  5.197466E-02  5.921927E-01
        41 0001-01-01 00:04:06.00  1.207432E-02  4.935484E+01  4.936691E+01  6.356250E+07
                       (15,07,10)  1.850740E-02  1.988208E-04  6.507486E-02  6.280781E-01
        42 0001-01-01 00:04:12.00  1.111978E-02  4.935667E+01  4.936779E+01  6.356250E+07
                       (16,10,10)  1.391424E-02  6.558944E-06  6.819258E-02  6.863507E-01
        43 0001-01-01 00:04:18.00  1.037577E-02  4.935807E+01  4.936845E+01  6.356250E+07
                       (16,10,10)  1.610931E-02  2.783669E-06  7.006499E-02  7.389572E-01
        44 0001-01-01 00:04:24.00  9.896237E-03  4.935894E+01  4.936884E+01  6.356250E+07
                       (16,10,10)  1.821525E-02  3.764064E-06  6.845830E-02  7.822317E-01
        45 0001-01-01 00:04:30.00  9.709912E-03  4.935922E+01  4.936893E+01  6.356250E+07
                       (16,10,10)  2.013786E-02  1.403351E-05  6.326928E-02  8.150633E-01
        46 0001-01-01 00:04:36.00  9.818493E-03  4.935891E+01  4.936873E+01  6.356250E+07
                       (17,10,10)  1.566239E-02  8.391042E-06  7.094769E-02  8.370436E-01
        47 0001-01-01 00:04:42.00  1.019871E-02  4.935806E+01  4.936826E+01  6.356250E+07
                       (17,10,10)  1.784432E-02  1.019619E-05  7.053463E-02  8.484400E-01
        48 0001-01-01 00:04:48.00  1.080779E-02  4.935675E+01  4.936756E+01  6.356250E+07
                       (17,10,10)  1.986101E-02  1.203035E-05  6.628569E-02  8.497712E-01
        49 0001-01-01 00:04:54.00  1.159218E-02  4.935509E+01  4.936668E+01  6.356250E+07
                       (18,10,10)  1.519142E-02  1.777231E-06  7.140062E-02  8.415612E-01
        50 0001-01-01 00:05:00.00  1.249710E-02  4.935319E+01  4.936568E+01  6.356250E+07
                       (18,10,10)  1.743251E-02  2.328927E-06  7.221764E-02  8.356607E-01
        51 0001-01-01 00:05:06.00  1.347254E-02  4.935115E+01  4.936462E+01  6.356250E+07
                       (18,10,10)  1.952967E-02  2.934807E-06  6.905395E-02  8.342129E-01
        52 0001-01-01 00:05:12.00  1.447273E-02  4.934906E+01  4.936353E+01  6.356250E+07
                       (19,09,10)  1.470873E-02  1.395866E-07  7.139202E-02  8.250545E-01
        53 0001-01-01 00:05:18.00  1.545146E-02  4.934702E+01  4.936247E+01  6.356250E+07
                       (19,09,10)  1.700034E-02  1.704155E-07  7.341815E-02  8.341793E-01
        54 0001-01-01 00:05:24.00  1.636014E-02  4.934511E+01  4.936147E+01  6.356250E+07
                       (19,10,10)  1.917338E-02  1.213602E-07  7.142613E-02  8.322922E-01
        55 0001-01-01 00:05:30.00  1.715364E-02  4.934344E+01  4.936059E+01  6.356250E+07
                       (19,09,10)  2.111135E-02  3.339980E-07  6.513202E-02  8.239021E-01
        56 0001-01-01 00:05:36.00  1.780140E-02  4.934206E+01  4.935986E+01  6.356250E+07
                       (20,09,10)  1.654667E-02  6.604850E-08  7.416299E-02  8.336850E-01
        57 0001-01-01 00:05:42.00  1.829554E-02  4.934098E+01  4.935928E+01  6.356250E+07
                       (20,09,10)  1.878876E-02  8.555853E-08  7.338243E-02  8.318481E-01
        58 0001-01-01 00:05:48.00  1.864942E-02  4.934018E+01  4.935883E+01  6.356250E+07
                       (20,09,10)  2.081626E-02  1.039995E-07  6.812404E-02  8.231854E-01
        59 0001-01-01 00:05:54.00  1.888795E-02  4.933962E+01  4.935851E+01  6.356250E+07
                       (21,07,10)  1.607343E-02  1.787280E-08  7.448577E-02  8.341337E-01
        60 0001-01-01 00:06:00.00  1.903662E-02  4.933923E+01  4.935827E+01  6.356250E+07
                       (21,07,10)  1.837593E-02  2.329291E-08  7.492089E-02  8.327206E-01
      WRT_HIS     - wrote history     fields (Index=1,1) in record = 0000003
      WRT_AVG     - wrote averaged    fields             in record = 0000002
      WRT_RST     - wrote re-start    fields (Index=1,1) in record = 0000002
        61 0001-01-01 00:06:06.00  1.911668E-02  4.933898E+01  4.935810E+01  6.356250E+07
                       (21,07,10)  2.048834E-02  2.790391E-08  7.079697E-02  8.223666E-01
        62 0001-01-01 00:06:12.00  1.914582E-02  4.933883E+01  4.935797E+01  6.356250E+07
                       (22,06,10)  1.558466E-02  5.043642E-10  7.442252E-02  8.348959E-01
        63 0001-01-01 00:06:18.00  1.914047E-02  4.933875E+01  4.935789E+01  6.356250E+07
                       (22,06,10)  1.793831E-02  4.685339E-10  7.604898E-02  8.342808E-01
        64 0001-01-01 00:06:24.00  1.911569E-02  4.933870E+01  4.935782E+01  6.356250E+07
                       (22,06,10)  2.012954E-02  2.911114E-10  7.312076E-02  8.223385E-01
        65 0001-01-01 00:06:30.00  1.908301E-02  4.933867E+01  4.935776E+01  6.356250E+07
                       (23,06,10)  1.508405E-02  4.564762E-10  7.401038E-02  8.355402E-01
        66 0001-01-01 00:06:36.00  1.904900E-02  4.933864E+01  4.935769E+01  6.356250E+07
                       (23,10,10)  1.747921E-02  2.817401E-10  7.678203E-02  8.360830E-01
        67 0001-01-01 00:06:42.00  1.901614E-02  4.933861E+01  4.935763E+01  6.356250E+07
                       (23,10,10)  1.974207E-02  4.413958E-10  7.507899E-02  8.245091E-01
        68 0001-01-01 00:06:48.00  1.898466E-02  4.933858E+01  4.935757E+01  6.356250E+07
                       (23,10,10)  2.173350E-02  8.130673E-10  6.833732E-02  8.359192E-01
        69 0001-01-01 00:06:54.00  1.895374E-02  4.933855E+01  4.935750E+01  6.356250E+07
                       (24,10,10)  1.700196E-02  2.266346E-11  7.714062E-02  8.379820E-01
        70 0001-01-01 00:07:00.00  1.892215E-02  4.933851E+01  4.935744E+01  6.356250E+07
                       (24,10,10)  1.932843E-02  1.688292E-10  7.666528E-02  8.270940E-01
        71 0001-01-01 00:07:06.00  1.888942E-02  4.933848E+01  4.935737E+01  6.356250E+07
                       (24,09,10)  2.140946E-02  6.885559E-10  7.108634E-02  8.358948E-01
        72 0001-01-01 00:07:12.00  1.885754E-02  4.933845E+01  4.935731E+01  6.356250E+07
                       (25,10,10)  1.651034E-02  3.036617E-10  7.714471E-02  8.398279E-01
        73 0001-01-01 00:07:18.00  1.883032E-02  4.933841E+01  4.935724E+01  6.356250E+07
                       (25,07,10)  1.889222E-02  1.027392E-09  7.787444E-02  8.299622E-01
        74 0001-01-01 00:07:24.00  1.880962E-02  4.933835E+01  4.935716E+01  6.356250E+07
                       (25,06,10)  2.105774E-02  7.361038E-10  7.350900E-02  8.353605E-01
        75 0001-01-01 00:07:30.00  1.879079E-02  4.933829E+01  4.935708E+01  6.356250E+07
                       (26,10,10)  1.601785E-02  2.624519E-08  7.674419E-02  8.415001E-01
        76 0001-01-01 00:07:36.00  1.876234E-02  4.933826E+01  4.935702E+01  6.356250E+07
                       (26,10,10)  1.845207E-02  3.368955E-08  7.859777E-02  8.330120E-01
        77 0001-01-01 00:07:42.00  1.871154E-02  4.933826E+01  4.935697E+01  6.356250E+07
                       (26,10,10)  2.070408E-02  4.180880E-08  7.541240E-02  8.344194E-01
        78 0001-01-01 00:07:48.00  1.863213E-02  4.933833E+01  4.935696E+01  6.356250E+07
                       (27,10,10)  1.564832E-02  1.445212E-06  7.512310E-02  8.431889E-01
        79 0001-01-01 00:07:54.00  1.852802E-02  4.933844E+01  4.935697E+01  6.356250E+07
                       (27,10,10)  1.818150E-02  1.461695E-06  7.766451E-02  8.365984E-01
        80 0001-01-01 00:08:00.00  1.841048E-02  4.933859E+01  4.935700E+01  6.356250E+07
                       (27,10,10)  2.058822E-02  1.121258E-06  7.514802E-02  8.354516E-01
        81 0001-01-01 00:08:06.00  1.829238E-02  4.933873E+01  4.935702E+01  6.356250E+07
                       (27,10,10)  2.272144E-02  1.411496E-07  6.679650E-02  8.483688E-01
        82 0001-01-01 00:08:12.00  1.818553E-02  4.933885E+01  4.935703E+01  6.356250E+07
                       (28,09,10)  1.911744E-02  3.489399E-04  6.760578E-02  8.457246E-01
        83 0001-01-01 00:08:18.00  1.810296E-02  4.933891E+01  4.935702E+01  6.356250E+07
                       (28,09,10)  2.204230E-02  4.629954E-04  6.320875E-02  8.580050E-01
        84 0001-01-01 00:08:24.00  1.806245E-02  4.933889E+01  4.935695E+01  6.356250E+07
                       (28,09,10)  2.482595E-02  6.066109E-04  5.231629E-02  8.834581E-01
        85 0001-01-01 00:08:30.00  1.808522E-02  4.933873E+01  4.935681E+01  6.356250E+07
                       (29,06,10)  1.805197E-02  2.881101E-02  3.403860E-02  9.415630E-01
        86 0001-01-01 00:08:36.00  1.818795E-02  4.933839E+01  4.935658E+01  6.356250E+07
                       (29,06,10)  2.088718E-02  3.337902E-02  3.178739E-02  1.021313E+00
        87 0001-01-01 00:08:42.00  1.837259E-02  4.933786E+01  4.935624E+01  6.356250E+07
                       (29,06,10)  2.357671E-02  3.746401E-02  2.685556E-02  1.089348E+00
        88 0001-01-01 00:08:48.00  1.862126E-02  4.933718E+01  4.935580E+01  6.356250E+07
                       (29,06,10)  2.596310E-02  4.066649E-02  1.965344E-02  1.143683E+00
        89 0001-01-01 00:08:54.00  1.890132E-02  4.933641E+01  4.935531E+01  6.356250E+07
                       (28,10,10)  3.499161E-02  1.232122E-03  6.534754E-02  1.183035E+00
        90 0001-01-01 00:09:00.00  1.917825E-02  4.933563E+01  4.935481E+01  6.356250E+07
                       (28,06,10)  3.567103E-02  1.356112E-03  8.185755E-02  1.207024E+00
      WRT_HIS     - wrote history     fields (Index=1,1) in record = 0000004
      WRT_AVG     - wrote averaged    fields             in record = 0000003
      WRT_RST     - wrote re-start    fields (Index=1,1) in record = 0000001
        91 0001-01-01 00:09:06.00  1.942892E-02  4.933490E+01  4.935433E+01  6.356250E+07
                       (28,06,10)  3.591714E-02  1.493152E-03  9.008657E-02  1.216374E+00
        92 0001-01-01 00:09:12.00  1.964744E-02  4.933425E+01  4.935389E+01  6.356250E+07
                       (28,06,10)  3.582279E-02  1.595760E-03  8.947850E-02  1.212355E+00
        93 0001-01-01 00:09:18.00  1.984053E-02  4.933366E+01  4.935350E+01  6.356250E+07
                       (28,06,10)  3.541365E-02  1.660831E-03  8.085864E-02  1.196087E+00
        94 0001-01-01 00:09:24.00  2.001641E-02  4.933313E+01  4.935315E+01  6.356250E+07
                       (27,09,10)  2.648616E-02  2.964086E-04  8.105410E-02  1.169318E+00
        95 0001-01-01 00:09:30.00  2.017428E-02  4.933266E+01  4.935284E+01  6.356250E+07
                       (27,09,10)  2.666252E-02  3.357909E-04  8.023654E-02  1.133251E+00
        96 0001-01-01 00:09:36.00  2.030103E-02  4.933228E+01  4.935258E+01  6.356250E+07
                       (27,09,10)  2.664282E-02  3.727711E-04  7.707171E-02  1.088558E+00
        97 0001-01-01 00:09:42.00  2.037664E-02  4.933202E+01  4.935240E+01  6.356250E+07
                       (26,06,10)  1.859280E-02  1.523192E-05  8.262997E-02  1.036369E+00
        98 0001-01-01 00:09:48.00  2.038430E-02  4.933191E+01  4.935229E+01  6.356250E+07
                       (26,06,10)  1.877970E-02  1.730070E-05  8.248353E-02  9.777341E-01
        99 0001-01-01 00:09:54.00  2.031867E-02  4.933196E+01  4.935228E+01  6.356250E+07
                       (26,06,10)  1.892386E-02  1.928380E-05  7.899618E-02  9.141513E-01
       100 0001-01-01 00:10:00.00  2.018710E-02  4.933214E+01  4.935233E+01  6.356250E+07
                       (26,06,10)  1.896654E-02  2.110251E-05  7.199433E-02  8.478208E-01
       101 0001-01-01 00:10:06.00  2.000382E-02  4.933244E+01  4.935244E+01  6.356250E+07
                       (26,06,10)  1.884769E-02  2.268095E-05  6.162043E-02  7.812663E-01
       102 0001-01-01 00:10:12.00  1.978210E-02  4.933282E+01  4.935260E+01  6.356250E+07
                       (25,09,10)  1.359713E-02  3.947834E-06  6.214513E-02  7.168812E-01
       103 0001-01-01 00:10:18.00  1.953004E-02  4.933326E+01  4.935279E+01  6.356250E+07
                       (25,09,10)  1.413640E-02  4.308070E-06  5.893560E-02  6.564614E-01
       104 0001-01-01 00:10:24.00  1.925254E-02  4.933376E+01  4.935301E+01  6.356250E+07
                       (25,09,10)  1.452048E-02  4.635056E-06  5.348843E-02  6.008767E-01
       105 0001-01-01 00:10:30.00  1.895675E-02  4.933429E+01  4.935325E+01  6.356250E+07
                       (24,10,10)  1.008679E-02  7.318549E-08  5.479617E-02  5.634597E-01
       106 0001-01-01 00:10:36.00  1.865662E-02  4.933484E+01  4.935349E+01  6.356250E+07
                       (24,06,10)  1.093638E-02  1.398720E-07  5.206334E-02  5.260773E-01
       107 0001-01-01 00:10:42.00  1.837297E-02  4.933535E+01  4.935372E+01  6.356250E+07
                       (24,06,10)  1.173566E-02  1.501948E-07  4.672366E-02  4.881556E-01
       108 0001-01-01 00:10:48.00  1.812937E-02  4.933579E+01  4.935392E+01  6.356250E+07
                       (24,06,10)  1.243517E-02  1.651052E-07  3.865166E-02  4.605735E-01
       109 0001-01-01 00:10:54.00  1.794538E-02  4.933610E+01  4.935405E+01  6.356250E+07
                       (36,08,10)  8.188371E-03  1.055727E-07  3.736386E-02  4.411669E-01
       110 0001-01-01 00:11:00.00  1.782990E-02  4.933628E+01  4.935411E+01  6.356250E+07
                       (36,10,10)  9.329172E-03  3.056344E-05  3.822812E-02  4.523107E-01
       111 0001-01-01 00:11:06.00  1.777697E-02  4.933634E+01  4.935411E+01  6.356250E+07
                       (36,14,10)  1.038164E-02  3.379199E-05  3.717220E-02  4.573958E-01
       112 0001-01-01 00:11:12.00  1.776658E-02  4.933631E+01  4.935407E+01  6.356250E+07
                       (25,09,10)  9.482757E-03  5.587836E-06  4.130698E-02  4.783854E-01
       113 0001-01-01 00:11:18.00  1.777171E-02  4.933624E+01  4.935401E+01  6.356250E+07
                       (25,09,10)  8.474622E-03  5.660385E-06  4.572675E-02  4.992836E-01
       114 0001-01-01 00:11:24.00  1.776852E-02  4.933619E+01  4.935396E+01  6.356250E+07
                       (22,07,10)  1.290264E-02  2.577455E-08  4.234319E-02  5.086551E-01
       115 0001-01-01 00:11:30.00  1.774548E-02  4.933618E+01  4.935393E+01  6.356250E+07
                       (24,10,10)  1.167810E-02  7.187534E-08  4.957760E-02  5.056355E-01
       116 0001-01-01 00:11:36.00  1.770594E-02  4.933621E+01  4.935391E+01  6.356250E+07
                       (24,10,10)  1.080196E-02  2.667952E-08  5.373878E-02  4.904166E-01
       117 0001-01-01 00:11:42.00  1.766293E-02  4.933624E+01  4.935390E+01  6.356250E+07
                       (24,10,10)  9.866722E-03  2.211533E-08  5.284480E-02  4.759039E-01
       118 0001-01-01 00:11:48.00  1.762943E-02  4.933625E+01  4.935388E+01  6.356250E+07
                       (24,06,10)  8.933415E-03  1.325027E-08  4.708727E-02  4.729524E-01
       119 0001-01-01 00:11:54.00  1.760984E-02  4.933623E+01  4.935384E+01  6.356250E+07
                       (24,06,10)  8.051904E-03  2.426451E-08  3.744537E-02  4.636614E-01
       120 0001-01-01 00:12:00.00  1.759667E-02  4.933620E+01  4.935380E+01  6.356250E+07
                       (39,15,10)  9.359484E-03  9.968516E-07  3.766877E-02  4.690053E-01
      WRT_HIS     - wrote history     fields (Index=1,1) in record = 0000005
      WRT_AVG     - wrote averaged    fields             in record = 0000004
      WRT_RST     - wrote re-start    fields (Index=1,1) in record = 0000002
       121 0001-01-01 00:12:06.00  1.757352E-02  4.933619E+01  4.935376E+01  6.356250E+07
                       (20,09,10)  1.237383E-02  3.073063E-07  3.499154E-02  4.815564E-01
       122 0001-01-01 00:12:12.00  1.752139E-02  4.933624E+01  4.935376E+01  6.356250E+07
                       (22,06,10)  1.167637E-02  2.562699E-08  3.618484E-02  4.847883E-01
       123 0001-01-01 00:12:18.00  1.742427E-02  4.933638E+01  4.935380E+01  6.356250E+07
                       (22,06,10)  1.071815E-02  6.994029E-08  4.553209E-02  4.778504E-01
       124 0001-01-01 00:12:24.00  1.727083E-02  4.933663E+01  4.935390E+01  6.356250E+07
                       (22,06,10)  9.705510E-03  1.244370E-07  5.077212E-02  4.699920E-01
       125 0001-01-01 00:12:30.00  1.705182E-02  4.933701E+01  4.935406E+01  6.356250E+07
                       (22,06,10)  8.698309E-03  1.841774E-07  5.126426E-02  4.723361E-01
       126 0001-01-01 00:12:36.00  1.675553E-02  4.933754E+01  4.935430E+01  6.356250E+07
                       (22,10,10)  7.751888E-03  2.316073E-07  4.704176E-02  4.676030E-01
       127 0001-01-01 00:12:42.00  1.636499E-02  4.933827E+01  4.935463E+01  6.356250E+07
                       (41,08,10)  8.370771E-03  2.925073E-09  4.562618E-02  4.596397E-01
       128 0001-01-01 00:12:48.00  1.586055E-02  4.933922E+01  4.935508E+01  6.356250E+07
                       (42,09,10)  3.286208E-03  4.935346E-07  5.588065E-02  4.733368E-01
       129 0001-01-01 00:12:54.00  1.522845E-02  4.934043E+01  4.935566E+01  6.356250E+07
                       (42,08,10)  3.528580E-03  2.468564E-09  6.194576E-02  4.795299E-01
       130 0001-01-01 00:13:00.00  1.447336E-02  4.934189E+01  4.935636E+01  6.356250E+07
                       (42,08,10)  3.649237E-03  5.218153E-09  6.646853E-02  4.775651E-01
       131 0001-01-01 00:13:06.00  1.362930E-02  4.934352E+01  4.935715E+01  6.356250E+07
                       (42,08,10)  3.612343E-03  1.563821E-08  6.870615E-02  4.854375E-01
       132 0001-01-01 00:13:12.00  1.276339E-02  4.934520E+01  4.935796E+01  6.356250E+07
                       (42,07,10)  3.392756E-03  1.150918E-06  6.799054E-02  5.039945E-01
       133 0001-01-01 00:13:18.00  1.196889E-02  4.934673E+01  4.935870E+01  6.356250E+07
                       (42,14,10)  2.982356E-03  2.371707E-06  6.386025E-02  5.710605E-01
       134 0001-01-01 00:13:24.00  1.134863E-02  4.934791E+01  4.935926E+01  6.356250E+07
                       (42,01,10)  2.394559E-03  8.782590E-07  5.615953E-02  6.401199E-01
       135 0001-01-01 00:13:30.00  1.099355E-02  4.934856E+01  4.935955E+01  6.356250E+07
                       (19,06,10)  1.071980E-02  5.165984E-06  4.703586E-02  7.093661E-01
       136 0001-01-01 00:13:36.00  1.096246E-02  4.934855E+01  4.935951E+01  6.356250E+07
                       (19,06,10)  9.814958E-03  5.480224E-06  5.235016E-02  7.770363E-01
       137 0001-01-01 00:13:42.00  1.126855E-02  4.934785E+01  4.935912E+01  6.356250E+07
                       (18,10,10)  1.518899E-02  1.896286E-05  5.055326E-02  8.407979E-01
       138 0001-01-01 00:13:48.00  1.187598E-02  4.934655E+01  4.935842E+01  6.356250E+07
                       (18,10,10)  1.493482E-02  1.950154E-05  6.145892E-02  8.986733E-01
       139 0001-01-01 00:13:54.00  1.270718E-02  4.934479E+01  4.935750E+01  6.356250E+07
                       (18,10,10)  1.470156E-02  2.008274E-05  7.010713E-02  9.485439E-01
       140 0001-01-01 00:14:00.00  1.365935E-02  4.934278E+01  4.935644E+01  6.356250E+07
                       (18,10,10)  1.455781E-02  2.068171E-05  7.577456E-02  9.887589E-01
       141 0001-01-01 00:14:06.00  1.462654E-02  4.934074E+01  4.935537E+01  6.356250E+07
                       (17,07,10)  2.275221E-02  1.526588E-04  7.068374E-02  1.018106E+00
       142 0001-01-01 00:14:12.00  1.552131E-02  4.933884E+01  4.935436E+01  6.356250E+07
                       (17,07,10)  2.284686E-02  1.673999E-04  7.710265E-02  1.035922E+00
       143 0001-01-01 00:14:18.00  1.628966E-02  4.933719E+01  4.935348E+01  6.356250E+07
                       (17,07,10)  2.276022E-02  1.829803E-04  7.955800E-02  1.042068E+00
       144 0001-01-01 00:14:24.00  1.691444E-02  4.933583E+01  4.935275E+01  6.356250E+07
                       (17,07,10)  2.251811E-02  1.992925E-04  7.740790E-02  1.036492E+00
       145 0001-01-01 00:14:30.00  1.740690E-02  4.933474E+01  4.935215E+01  6.356250E+07
                       (14,10,10)  1.564956E-02  3.644499E-02  4.208652E-02  1.019690E+00
       146 0001-01-01 00:14:36.00  1.779082E-02  4.933386E+01  4.935165E+01  6.356250E+07
                       (14,10,10)  1.541693E-02  3.610403E-02  3.807685E-02  9.925050E-01
       147 0001-01-01 00:14:42.00  1.808681E-02  4.933317E+01  4.935126E+01  6.356250E+07
                       (14,10,10)  1.505907E-02  3.557818E-02  3.267238E-02  9.560902E-01
       148 0001-01-01 00:14:48.00  1.830361E-02  4.933264E+01  4.935094E+01  6.356250E+07
                       (14,10,10)  1.455667E-02  3.484012E-02  2.625793E-02  9.118718E-01
       149 0001-01-01 00:14:54.00  1.843885E-02  4.933227E+01  4.935071E+01  6.356250E+07
                       (19,10,10)  1.483056E-02  1.188918E-05  5.744596E-02  8.614943E-01
       150 0001-01-01 00:15:00.00  1.848659E-02  4.933209E+01  4.935057E+01  6.356250E+07
                       (19,10,10)  1.534545E-02  1.254603E-05  5.570980E-02  8.067513E-01
      WRT_HIS     - wrote history     fields (Index=1,1) in record = 0000006
      WRT_AVG     - wrote averaged    fields             in record = 0000005
      WRT_RST     - wrote re-start    fields (Index=1,1) in record = 0000001
       151 0001-01-01 00:15:06.00  1.844595E-02  4.933208E+01  4.935053E+01  6.356250E+07
                       (19,10,10)  1.574918E-02  1.319181E-05  4.938588E-02  7.495092E-01
       152 0001-01-01 00:15:12.00  1.832584E-02  4.933224E+01  4.935057E+01  6.356250E+07
                       (19,10,10)  1.604604E-02  1.381782E-05  3.892259E-02  6.916366E-01
       153 0001-01-01 00:15:18.00  1.814458E-02  4.933253E+01  4.935067E+01  6.356250E+07
                       (21,06,10)  1.030006E-02  3.200012E-07  4.586331E-02  6.349328E-01
       154 0001-01-01 00:15:24.00  1.792600E-02  4.933289E+01  4.935081E+01  6.356250E+07
                       (21,06,10)  1.140476E-02  3.749077E-07  4.784443E-02  5.810208E-01
       155 0001-01-01 00:15:30.00  1.769489E-02  4.933328E+01  4.935097E+01  6.356250E+07
                       (21,06,10)  1.248360E-02  4.282564E-07  4.623439E-02  5.432982E-01
       156 0001-01-01 00:15:36.00  1.747362E-02  4.933365E+01  4.935113E+01  6.356250E+07
                       (21,06,10)  1.351772E-02  4.751178E-07  4.096278E-02  5.396211E-01
       157 0001-01-01 00:15:42.00  1.727995E-02  4.933397E+01  4.935125E+01  6.356250E+07
                       (35,15,10)  9.353224E-03  9.378342E-05  4.192412E-02  5.428290E-01
       158 0001-01-01 00:15:48.00  1.712593E-02  4.933421E+01  4.935134E+01  6.356250E+07
                       (35,15,10)  1.023793E-02  4.733753E-05  3.873559E-02  5.385973E-01
       159 0001-01-01 00:15:54.00  1.701749E-02  4.933436E+01  4.935138E+01  6.356250E+07
                       (23,10,10)  1.045782E-02  5.514031E-07  4.188867E-02  5.343202E-01
       160 0001-01-01 00:16:00.00  1.695454E-02  4.933442E+01  4.935138E+01  6.356250E+07
                       (23,10,10)  1.164043E-02  6.016605E-07  4.285321E-02  5.509032E-01
       161 0001-01-01 00:16:06.00  1.693130E-02  4.933440E+01  4.935134E+01  6.356250E+07
                       (23,06,10)  1.276908E-02  6.126044E-07  4.206197E-02  5.601804E-01
       162 0001-01-01 00:16:12.00  1.693654E-02  4.933433E+01  4.935127E+01  6.356250E+07
                       (23,06,10)  1.380509E-02  6.487000E-07  3.974611E-02  5.614950E-01
       163 0001-01-01 00:16:18.00  1.695419E-02  4.933423E+01  4.935118E+01  6.356250E+07
                       (24,10,10)  1.076243E-02  7.691223E-07  4.395343E-02  5.656146E-01
       164 0001-01-01 00:16:24.00  1.696533E-02  4.933414E+01  4.935111E+01  6.356250E+07
                       (24,10,10)  1.198458E-02  8.093754E-07  4.266184E-02  5.655391E-01
       165 0001-01-01 00:16:30.00  1.695228E-02  4.933411E+01  4.935106E+01  6.356250E+07
                       (24,10,10)  1.315902E-02  8.637192E-07  3.932274E-02  5.583374E-01
       166 0001-01-01 00:16:36.00  1.690350E-02  4.933414E+01  4.935104E+01  6.356250E+07
                       (24,10,10)  1.423717E-02  9.130267E-07  3.416438E-02  5.452095E-01
       167 0001-01-01 00:16:42.00  1.681639E-02  4.933425E+01  4.935107E+01  6.356250E+07
                       (25,09,10)  1.211037E-02  6.855072E-06  3.788113E-02  5.479093E-01
       168 0001-01-01 00:16:48.00  1.669517E-02  4.933444E+01  4.935113E+01  6.356250E+07
                       (25,09,10)  1.334582E-02  6.978624E-06  3.762063E-02  5.452908E-01
       169 0001-01-01 00:16:54.00  1.654327E-02  4.933468E+01  4.935122E+01  6.356250E+07
                       (26,10,10)  1.031700E-02  3.519820E-05  4.493337E-02  5.486981E-01
       170 0001-01-01 00:17:00.00  1.635393E-02  4.933500E+01  4.935135E+01  6.356250E+07
                       (26,10,10)  1.147081E-02  3.543405E-05  4.632314E-02  5.580128E-01
       171 0001-01-01 00:17:06.00  1.610432E-02  4.933544E+01  4.935154E+01  6.356250E+07
                       (26,10,10)  1.255959E-02  3.581205E-05  4.571681E-02  5.593033E-01
       172 0001-01-01 00:17:12.00  1.575711E-02  4.933608E+01  4.935184E+01  6.356250E+07
                       (26,10,10)  1.353531E-02  3.633893E-05  4.305030E-02  5.528668E-01
       173 0001-01-01 00:17:18.00  1.526906E-02  4.933700E+01  4.935227E+01  6.356250E+07
                       (30,11,10)  8.034655E-03  6.100283E-03  4.512146E-02  5.486442E-01
       174 0001-01-01 00:17:24.00  1.460235E-02  4.933828E+01  4.935289E+01  6.356250E+07
                       (28,06,10)  5.681074E-03  1.145630E-03  5.667590E-02  5.444011E-01
       175 0001-01-01 00:17:30.00  1.373352E-02  4.933997E+01  4.935371E+01  6.356250E+07
                       (28,06,10)  6.171747E-03  1.142753E-03  6.465566E-02  5.331468E-01
       176 0001-01-01 00:17:36.00  1.265818E-02  4.934208E+01  4.935473E+01  6.356250E+07
                       (28,06,10)  6.589628E-03  1.141970E-03  7.070293E-02  5.159459E-01
       177 0001-01-01 00:17:42.00  1.139312E-02  4.934456E+01  4.935596E+01  6.356250E+07
                       (28,06,10)  6.907871E-03  1.142964E-03  7.407594E-02  5.082144E-01
       178 0001-01-01 00:17:48.00  9.978728E-03  4.934735E+01  4.935733E+01  6.356250E+07
                       (28,06,10)  7.106903E-03  1.145119E-03  7.424733E-02  4.919833E-01
       179 0001-01-01 00:17:54.00  8.481940E-03  4.935031E+01  4.935879E+01  6.356250E+07
                       (28,06,10)  7.177595E-03  1.147809E-03  7.096013E-02  4.664066E-01
       180 0001-01-01 00:18:00.00  6.996441E-03  4.935324E+01  4.936024E+01  6.356250E+07
                       (28,06,10)  7.123359E-03  1.150391E-03  6.424968E-02  4.321302E-01
      WRT_HIS     - wrote history     fields (Index=1,1) in record = 0000007
      WRT_AVG     - wrote averaged    fields             in record = 0000006
      WRT_RST     - wrote re-start    fields (Index=1,1) in record = 0000002
       181 0001-01-01 00:18:06.00  5.635009E-03  4.935593E+01  4.936157E+01  6.356250E+07
                       (28,06,10)  6.960661E-03  1.152305E-03  5.443853E-02  3.902325E-01
       182 0001-01-01 00:18:12.00  4.512090E-03  4.935814E+01  4.936265E+01  6.356250E+07
                       (28,06,10)  6.717665E-03  1.153238E-03  4.210105E-02  3.421560E-01
       183 0001-01-01 00:18:18.00  3.720407E-03  4.935969E+01  4.936341E+01  6.356250E+07
                       (28,06,10)  6.430909E-03  1.153078E-03  2.800501E-02  2.998939E-01
       184 0001-01-01 00:18:24.00  3.310176E-03  4.936048E+01  4.936379E+01  6.356250E+07
                       (21,07,10)  2.238069E-03  7.222842E-07  2.253277E-02  2.604884E-01
       185 0001-01-01 00:18:30.00  3.279323E-03  4.936051E+01  4.936379E+01  6.356250E+07
                       (01,08,10)  1.315221E-03  1.457924E-08  2.148527E-02  2.986983E-01
       186 0001-01-01 00:18:36.00  3.578248E-03  4.935988E+01  4.936346E+01  6.356250E+07
                       (29,06,10)  9.881597E-03  4.701588E-04  1.688445E-02  3.336409E-01
       187 0001-01-01 00:18:42.00  4.126870E-03  4.935875E+01  4.936288E+01  6.356250E+07
                       (29,06,10)  1.071723E-02  4.394371E-05  2.898667E-02  3.632086E-01
       188 0001-01-01 00:18:48.00  4.837097E-03  4.935730E+01  4.936214E+01  6.356250E+07
                       (29,06,10)  1.137597E-02  5.965516E-04  3.858613E-02  3.982634E-01
       189 0001-01-01 00:18:54.00  5.633040E-03  4.935568E+01  4.936132E+01  6.356250E+07
                       (29,06,10)  1.185063E-02  1.161305E-03  4.526001E-02  4.240604E-01
       190 0001-01-01 00:19:00.00  6.463419E-03  4.935400E+01  4.936046E+01  6.356250E+07
                       (29,06,10)  1.214781E-02  1.698258E-03  4.892310E-02  4.392046E-01
       191 0001-01-01 00:19:06.00  7.304497E-03  4.935228E+01  4.935959E+01  6.356250E+07
                       (29,06,10)  1.228459E-02  2.165221E-03  4.979072E-02  4.444276E-01
       192 0001-01-01 00:19:12.00  8.153875E-03  4.935055E+01  4.935871E+01  6.356250E+07
                       (28,06,10)  6.587998E-03  1.151802E-03  5.556905E-02  4.411949E-01
       193 0001-01-01 00:19:18.00  9.018476E-03  4.934879E+01  4.935781E+01  6.356250E+07
                       (28,06,10)  6.895875E-03  1.149072E-03  5.422844E-02  4.314583E-01
       194 0001-01-01 00:19:24.00  9.901564E-03  4.934698E+01  4.935689E+01  6.356250E+07
                       (28,06,10)  7.161793E-03  1.144555E-03  5.136524E-02  4.173836E-01
       195 0001-01-01 00:19:30.00  1.079410E-02  4.934516E+01  4.935595E+01  6.356250E+07
                       (28,06,10)  7.352300E-03  1.137769E-03  4.744272E-02  4.136605E-01
       196 0001-01-01 00:19:36.00  1.167380E-02  4.934336E+01  4.935503E+01  6.356250E+07
                       (27,09,10)  2.450807E-03  6.114532E-04  5.237701E-02  4.268846E-01
       197 0001-01-01 00:19:42.00  1.251149E-02  4.934163E+01  4.935415E+01  6.356250E+07
                       (26,09,10)  3.118521E-03  6.981744E-05  5.258427E-02  4.464505E-01
       198 0001-01-01 00:19:48.00  1.328033E-02  4.934005E+01  4.935333E+01  6.356250E+07
                       (26,09,10)  2.826068E-03  7.058166E-05  5.474611E-02  4.657100E-01
       199 0001-01-01 00:19:54.00  1.396244E-02  4.933863E+01  4.935259E+01  6.356250E+07
                       (26,09,10)  2.502769E-03  7.132529E-05  5.495306E-02  4.753886E-01
       200 0001-01-01 00:20:00.00  1.454979E-02  4.933740E+01  4.935195E+01  6.356250E+07
                       (26,09,10)  2.172228E-03  7.205715E-05  5.328276E-02  4.757844E-01
       201 0001-01-01 00:20:06.00  1.504029E-02  4.933637E+01  4.935141E+01  6.356250E+07
                       (26,09,10)  1.852910E-03  7.279693E-05  4.989820E-02  4.762449E-01
       202 0001-01-01 00:20:12.00  1.543356E-02  4.933552E+01  4.935096E+01  6.356250E+07
                       (36,08,10)  9.070986E-03  2.003227E-07  3.874387E-02  4.830486E-01
       203 0001-01-01 00:20:18.00  1.573036E-02  4.933487E+01  4.935060E+01  6.356250E+07
                       (36,08,10)  1.013329E-02  1.548679E-07  3.963776E-02  4.815600E-01
       204 0001-01-01 00:20:24.00  1.593583E-02  4.933440E+01  4.935034E+01  6.356250E+07
                       (36,14,10)  1.109685E-02  1.348580E-04  3.956274E-02  4.724691E-01
       205 0001-01-01 00:20:30.00  1.606360E-02  4.933408E+01  4.935015E+01  6.356250E+07
                       (36,15,10)  1.200895E-02  6.445369E-05  3.826295E-02  4.738517E-01
       206 0001-01-01 00:20:36.00  1.613628E-02  4.933388E+01  4.935001E+01  6.356250E+07
                       (37,15,10)  9.417881E-03  6.028313E-05  3.783390E-02  4.728172E-01
       207 0001-01-01 00:20:42.00  1.618028E-02  4.933373E+01  4.934991E+01  6.356250E+07
                       (37,15,10)  1.055155E-02  6.653739E-05  3.748907E-02  4.636460E-01
       208 0001-01-01 00:20:48.00  1.621725E-02  4.933360E+01  4.934981E+01  6.356250E+07
                       (37,15,10)  1.161533E-02  5.538585E-05  3.517109E-02  4.568829E-01
       209 0001-01-01 00:20:54.00  1.625652E-02  4.933346E+01  4.934971E+01  6.356250E+07
                       (38,15,10)  9.490094E-03  6.695743E-05  3.491104E-02  4.597005E-01
       210 0001-01-01 00:21:00.00  1.629298E-02  4.933332E+01  4.934961E+01  6.356250E+07
                       (38,15,10)  1.065985E-02  2.622753E-05  3.530968E-02  4.551882E-01
      WRT_HIS     - wrote history     fields (Index=1,1) in record = 0000008
      WRT_AVG     - wrote averaged    fields             in record = 0000007
      WRT_RST     - wrote re-start    fields (Index=1,1) in record = 0000001
       211 0001-01-01 00:21:06.00  1.631120E-02  4.933322E+01  4.934954E+01  6.356250E+07
                       (19,09,10)  8.895839E-03  2.895438E-05  3.704806E-02  4.602868E-01
       212 0001-01-01 00:21:12.00  1.629328E-02  4.933320E+01  4.934949E+01  6.356250E+07
                       (39,07,10)  9.123003E-03  1.254990E-04  3.852088E-02  4.687052E-01
       213 0001-01-01 00:21:18.00  1.622609E-02  4.933327E+01  4.934950E+01  6.356250E+07
                       (39,09,10)  1.015932E-02  1.657270E-04  4.064168E-02  4.694846E-01
       214 0001-01-01 00:21:24.00  1.610457E-02  4.933345E+01  4.934956E+01  6.356250E+07
                       (39,08,10)  1.113827E-02  9.657987E-08  4.071856E-02  4.630783E-01
       215 0001-01-01 00:21:30.00  1.593000E-02  4.933374E+01  4.934967E+01  6.356250E+07
                       (39,08,10)  1.201875E-02  3.363359E-08  3.799312E-02  4.693095E-01
       216 0001-01-01 00:21:36.00  1.570483E-02  4.933413E+01  4.934983E+01  6.356250E+07
                       (40,08,10)  9.518433E-03  1.056900E-08  3.699414E-02  4.668166E-01
       217 0001-01-01 00:21:42.00  1.542681E-02  4.933463E+01  4.935005E+01  6.356250E+07
                       (40,15,10)  1.050995E-02  7.169060E-06  3.666750E-02  4.563103E-01
       218 0001-01-01 00:21:48.00  1.508500E-02  4.933525E+01  4.935034E+01  6.356250E+07
                       (41,09,10)  7.398302E-03  1.236929E-04  4.237684E-02  4.530237E-01
       219 0001-01-01 00:21:54.00  1.465911E-02  4.933604E+01  4.935070E+01  6.356250E+07
                       (41,08,10)  8.193200E-03  2.738198E-07  4.653117E-02  4.541642E-01
       220 0001-01-01 00:22:00.00  1.412248E-02  4.933706E+01  4.935118E+01  6.356250E+07
                       (42,08,10)  3.122551E-03  2.714938E-07  5.489992E-02  4.470948E-01
       221 0001-01-01 00:22:06.00  1.344797E-02  4.933836E+01  4.935180E+01  6.356250E+07
                       (42,08,10)  3.378471E-03  2.435834E-07  5.967848E-02  4.320300E-01
       222 0001-01-01 00:22:12.00  1.261592E-02  4.933997E+01  4.935258E+01  6.356250E+07
                       (42,02,10)  3.581047E-03  1.780456E-04  6.387284E-02  4.235104E-01
       223 0001-01-01 00:22:18.00  1.162309E-02  4.934191E+01  4.935353E+01  6.356250E+07
                       (42,01,10)  3.673975E-03  9.641501E-05  6.857441E-02  4.280301E-01
       224 0001-01-01 00:22:24.00  1.049079E-02  4.934412E+01  4.935461E+01  6.356250E+07
                       (42,15,10)  3.628828E-03  1.021900E-04  7.089006E-02  4.470507E-01
       225 0001-01-01 00:22:30.00  9.269809E-03  4.934652E+01  4.935579E+01  6.356250E+07
                       (42,15,10)  3.425409E-03  7.864066E-05  7.013384E-02  4.781616E-01
       226 0001-01-01 00:22:36.00  8.039342E-03  4.934894E+01  4.935698E+01  6.356250E+07
                       (42,01,10)  3.055029E-03  3.255847E-05  6.586380E-02  5.055743E-01
       227 0001-01-01 00:22:42.00  6.898378E-03  4.935118E+01  4.935808E+01  6.356250E+07
                       (42,01,10)  2.525569E-03  2.256983E-05  5.803316E-02  5.279148E-01
       228 0001-01-01 00:22:48.00  5.949727E-03  4.935303E+01  4.935898E+01  6.356250E+07
                       (42,07,10)  1.880071E-03  1.370699E-04  4.795954E-02  5.442905E-01
       229 0001-01-01 00:22:54.00  5.280409E-03  4.935433E+01  4.935961E+01  6.356250E+07
                       (16,06,10)  9.385877E-03  1.052314E-03  3.336804E-02  5.542639E-01
       230 0001-01-01 00:23:00.00  4.943623E-03  4.935496E+01  4.935990E+01  6.356250E+07
                       (16,06,10)  8.714779E-03  1.040492E-03  3.798367E-02  5.578654E-01
       231 0001-01-01 00:23:06.00  4.948104E-03  4.935490E+01  4.935985E+01  6.356250E+07
                       (16,06,10)  8.055168E-03  1.027404E-03  4.047020E-02  5.554869E-01
       232 0001-01-01 00:23:12.00  5.258320E-03  4.935424E+01  4.935950E+01  6.356250E+07
                       (15,06,10)  1.484709E-02  1.294944E-03  4.132386E-02  5.478195E-01
       233 0001-01-01 00:23:18.00  5.805408E-03  4.935310E+01  4.935890E+01  6.356250E+07
                       (15,06,10)  1.445721E-02  1.329467E-03  4.691584E-02  5.357840E-01
       234 0001-01-01 00:23:24.00  6.505526E-03  4.935166E+01  4.935816E+01  6.356250E+07
                       (15,06,10)  1.400277E-02  1.354823E-03  4.949341E-02  5.257905E-01
       235 0001-01-01 00:23:30.00  7.279450E-03  4.935007E+01  4.935735E+01  6.356250E+07
                       (15,06,10)  1.351523E-02  1.371024E-03  4.920080E-02  5.152338E-01
       236 0001-01-01 00:23:36.00  8.066888E-03  4.934845E+01  4.935652E+01  6.356250E+07
                       (15,06,10)  1.301826E-02  1.379230E-03  4.652895E-02  5.005445E-01
       237 0001-01-01 00:23:42.00  8.831619E-03  4.934689E+01  4.935572E+01  6.356250E+07
                       (15,06,10)  1.252871E-02  1.381664E-03  4.218440E-02  4.832716E-01
       238 0001-01-01 00:23:48.00  9.557842E-03  4.934539E+01  4.935495E+01  6.356250E+07
                       (14,06,10)  1.299257E-02  3.585069E-03  3.722838E-02  4.648022E-01
       239 0001-01-01 00:23:54.00  1.024180E-02  4.934398E+01  4.935423E+01  6.356250E+07
                       (14,06,10)  1.251497E-02  2.452281E-03  3.620048E-02  4.462153E-01
       240 0001-01-01 00:24:00.00  1.088388E-02  4.934266E+01  4.935354E+01  6.356250E+07
                       (14,06,10)  1.203269E-02  1.538951E-03  3.435922E-02  4.282725E-01
      WRT_HIS     - wrote history     fields (Index=1,1) in record = 0000009
      WRT_AVG     - wrote averaged    fields             in record = 0000008
      WRT_RST     - wrote re-start    fields (Index=1,1) in record = 0000002
       241 0001-01-01 00:24:06.00  1.148460E-02  4.934141E+01  4.935289E+01  6.356250E+07
                       (14,01,10)  2.365682E-03  3.207192E-04  4.197940E-02  4.122289E-01
       242 0001-01-01 00:24:12.00  1.204423E-02  4.934024E+01  4.935229E+01  6.356250E+07
                       (41,15,10)  4.875888E-03  5.859653E-05  3.778362E-02  4.092303E-01
       243 0001-01-01 00:24:18.00  1.256377E-02  4.933916E+01  4.935172E+01  6.356250E+07
                       (40,15,10)  8.220427E-03  5.630906E-06  3.518841E-02  4.407134E-01
       244 0001-01-01 00:24:24.00  1.304468E-02  4.933814E+01  4.935119E+01  6.356250E+07
                       (40,01,10)  7.807383E-03  5.629008E-06  3.881788E-02  4.632223E-01
       245 0001-01-01 00:24:30.00  1.348719E-02  4.933720E+01  4.935069E+01  6.356250E+07
                       (40,07,10)  7.407040E-03  3.095175E-05  4.064216E-02  4.759543E-01
       246 0001-01-01 00:24:36.00  1.388868E-02  4.933634E+01  4.935023E+01  6.356250E+07
                       (36,15,10)  1.051511E-02  2.022635E-05  3.891738E-02  4.787835E-01
       247 0001-01-01 00:24:42.00  1.424385E-02  4.933557E+01  4.934982E+01  6.356250E+07
                       (36,15,10)  1.151500E-02  1.577578E-05  3.790348E-02  4.908514E-01
       248 0001-01-01 00:24:48.00  1.454712E-02  4.933491E+01  4.934945E+01  6.356250E+07
                       (39,01,10)  1.005804E-02  2.178829E-05  3.883014E-02  4.946405E-01
       249 0001-01-01 00:24:54.00  1.479586E-02  4.933435E+01  4.934914E+01  6.356250E+07
                       (35,03,10)  9.853587E-03  1.345496E-04  3.737952E-02  4.899881E-01
       250 0001-01-01 00:25:00.00  1.499229E-02  4.933389E+01  4.934889E+01  6.356250E+07
                       (35,09,10)  1.086887E-02  9.250967E-05  3.675774E-02  4.771127E-01
       251 0001-01-01 00:25:06.00  1.514303E-02  4.933353E+01  4.934867E+01  6.356250E+07
                       (35,09,10)  1.181917E-02  9.660812E-05  3.466704E-02  4.797727E-01
       252 0001-01-01 00:25:12.00  1.525677E-02  4.933324E+01  4.934850E+01  6.356250E+07
                       (34,09,10)  9.270375E-03  4.618474E-05  3.861844E-02  4.772257E-01
       253 0001-01-01 00:25:18.00  1.534173E-02  4.933301E+01  4.934835E+01  6.356250E+07
                       (34,08,10)  1.031046E-02  4.184613E-07  3.869503E-02  4.670697E-01
       254 0001-01-01 00:25:24.00  1.540428E-02  4.933282E+01  4.934822E+01  6.356250E+07
                       (34,08,10)  1.126761E-02  3.590281E-07  3.679801E-02  4.720661E-01
       255 0001-01-01 00:25:30.00  1.544889E-02  4.933267E+01  4.934812E+01  6.356250E+07
                       (33,01,10)  8.832168E-03  2.672793E-05  3.616137E-02  4.710994E-01
       256 0001-01-01 00:25:36.00  1.547858E-02  4.933255E+01  4.934802E+01  6.356250E+07
                       (33,02,10)  9.979605E-03  6.524213E-05  3.492117E-02  4.620315E-01
       257 0001-01-01 00:25:42.00  1.549467E-02  4.933245E+01  4.934795E+01  6.356250E+07
                       (33,02,10)  1.107324E-02  5.685466E-05  3.233117E-02  4.609992E-01
       258 0001-01-01 00:25:48.00  1.549588E-02  4.933239E+01  4.934788E+01  6.356250E+07
                       (32,13,10)  8.954079E-03  3.114048E-04  3.458986E-02  4.643620E-01
       259 0001-01-01 00:25:54.00  1.547700E-02  4.933236E+01  4.934784E+01  6.356250E+07
                       (32,09,10)  9.997374E-03  5.061108E-05  3.657928E-02  4.609253E-01
       260 0001-01-01 00:26:00.00  1.542870E-02  4.933240E+01  4.934783E+01  6.356250E+07
                       (32,08,10)  1.101497E-02  1.265330E-06  3.703039E-02  4.686683E-01
       261 0001-01-01 00:26:06.00  1.533904E-02  4.933252E+01  4.934786E+01  6.356250E+07
                       (31,05,10)  7.896306E-03  2.643932E-03  4.080616E-02  4.754067E-01
       262 0001-01-01 00:26:12.00  1.519635E-02  4.933274E+01  4.934794E+01  6.356250E+07
                       (31,05,10)  8.933037E-03  2.728669E-03  4.127461E-02  4.734737E-01
       263 0001-01-01 00:26:18.00  1.499214E-02  4.933309E+01  4.934808E+01  6.356250E+07
                       (31,05,10)  9.925206E-03  2.892729E-03  3.977700E-02  4.628110E-01
       264 0001-01-01 00:26:24.00  1.472229E-02  4.933357E+01  4.934829E+01  6.356250E+07
                       (31,05,10)  1.082046E-02  3.085658E-03  3.635806E-02  4.594428E-01
       265 0001-01-01 00:26:30.00  1.438580E-02  4.933419E+01  4.934857E+01  6.356250E+07
                       (29,11,10)  3.576777E-03  1.186085E-02  3.844278E-02  4.554002E-01
       266 0001-01-01 00:26:36.00  1.398212E-02  4.933494E+01  4.934892E+01  6.356250E+07
                       (29,11,10)  4.038943E-03  1.271999E-02  4.397600E-02  4.467446E-01
       267 0001-01-01 00:26:42.00  1.350917E-02  4.933583E+01  4.934934E+01  6.356250E+07
                       (29,11,10)  4.468200E-03  1.407926E-02  4.877947E-02  4.457722E-01
       268 0001-01-01 00:26:48.00  1.296457E-02  4.933686E+01  4.934983E+01  6.356250E+07
                       (29,11,10)  4.837544E-03  1.597150E-02  5.242586E-02  4.458539E-01
       269 0001-01-01 00:26:54.00  1.235089E-02  4.933804E+01  4.935039E+01  6.356250E+07
                       (29,05,10)  5.119313E-03  1.835019E-02  5.447236E-02  4.363774E-01
       270 0001-01-01 00:27:00.00  1.168361E-02  4.933932E+01  4.935101E+01  6.356250E+07
                       (29,11,10)  5.293947E-03  2.109877E-02  5.446651E-02  4.175420E-01
      WRT_HIS     - wrote history     fields (Index=1,1) in record = 0000010
      WRT_AVG     - wrote averaged    fields             in record = 0000009
      WRT_RST     - wrote re-start    fields (Index=1,1) in record = 0000001
       271 0001-01-01 00:27:06.00  1.099822E-02  4.934064E+01  4.935164E+01  6.356250E+07
                       (29,05,10)  5.341002E-03  2.403204E-02  5.204377E-02  4.098574E-01
       272 0001-01-01 00:27:12.00  1.035250E-02  4.934188E+01  4.935223E+01  6.356250E+07
                       (29,05,10)  5.257662E-03  2.694497E-02  4.698301E-02  4.632650E-01
       273 0001-01-01 00:27:18.00  9.820986E-03  4.934289E+01  4.935271E+01  6.356250E+07
                       (29,10,10)  1.029710E-02  2.607037E-02  3.915032E-02  5.255115E-01
       274 0001-01-01 00:27:24.00  9.482030E-03  4.934351E+01  4.935299E+01  6.356250E+07
                       (29,10,10)  1.081969E-02  2.822877E-02  3.007637E-02  5.879736E-01
       275 0001-01-01 00:27:30.00  9.401203E-03  4.934360E+01  4.935300E+01  6.356250E+07
                       (29,10,10)  1.111987E-02  2.999457E-02  1.891372E-02  6.483447E-01
       276 0001-01-01 00:27:36.00  9.616414E-03  4.934310E+01  4.935272E+01  6.356250E+07
                       (28,09,10)  1.969080E-02  1.270042E-03  3.070520E-02  7.040841E-01
       277 0001-01-01 00:27:42.00  1.012982E-02  4.934199E+01  4.935212E+01  6.356250E+07
                       (27,10,10)  1.885003E-02  3.606786E-04  3.663079E-02  7.526754E-01
       278 0001-01-01 00:27:48.00  1.090850E-02  4.934035E+01  4.935126E+01  6.356250E+07
                       (29,10,10)  1.088188E-02  3.285862E-02  1.881334E-02  7.919552E-01
       279 0001-01-01 00:27:54.00  1.189246E-02  4.933830E+01  4.935019E+01  6.356250E+07
                       (29,10,10)  1.055269E-02  3.315092E-02  2.954396E-02  8.204401E-01
       280 0001-01-01 00:28:00.00  1.300627E-02  4.933598E+01  4.934899E+01  6.356250E+07
                       (29,10,10)  1.017605E-02  3.321570E-02  3.801424E-02  8.442004E-01
       281 0001-01-01 00:28:06.00  1.417031E-02  4.933356E+01  4.934773E+01  6.356250E+07
                       (29,10,10)  9.786638E-03  3.310616E-02  4.383316E-02  8.766587E-01
       282 0001-01-01 00:28:12.00  1.530971E-02  4.933119E+01  4.934650E+01  6.356250E+07
                       (29,10,10)  9.414151E-03  3.286150E-02  4.694929E-02  8.964877E-01
       283 0001-01-01 00:28:18.00  1.636036E-02  4.932899E+01  4.934535E+01  6.356250E+07
                       (29,10,10)  9.075810E-03  3.250720E-02  4.759446E-02  9.038539E-01
       284 0001-01-01 00:28:24.00  1.727252E-02  4.932707E+01  4.934434E+01  6.356250E+07
                       (29,10,10)  8.779042E-03  3.206061E-02  4.619411E-02  9.043315E-01
       285 0001-01-01 00:28:30.00  1.801224E-02  4.932550E+01  4.934351E+01  6.356250E+07
                       (29,10,10)  8.524982E-03  3.153968E-02  4.326285E-02  9.198061E-01
       286 0001-01-01 00:28:36.00  1.856090E-02  4.932430E+01  4.934287E+01  6.356250E+07
                       (29,10,10)  8.310274E-03  3.096971E-02  3.934192E-02  9.224663E-01
       287 0001-01-01 00:28:42.00  1.891367E-02  4.932350E+01  4.934242E+01  6.356250E+07
                       (24,10,10)  2.010517E-02  3.482693E-07  6.284048E-02  9.131216E-01
       288 0001-01-01 00:28:48.00  1.907764E-02  4.932308E+01  4.934216E+01  6.356250E+07
                       (23,10,10)  1.369498E-02  6.529947E-07  7.273827E-02  8.944947E-01
       289 0001-01-01 00:28:54.00  1.907055E-02  4.932301E+01  4.934208E+01  6.356250E+07
                       (23,10,10)  1.465607E-02  6.047775E-07  7.489396E-02  8.820113E-01
       290 0001-01-01 00:29:00.00  1.891969E-02  4.932322E+01  4.934214E+01  6.356250E+07
                       (23,10,10)  1.565162E-02  5.551231E-07  7.377248E-02  8.644520E-01
       291 0001-01-01 00:29:06.00  1.865986E-02  4.932366E+01  4.934232E+01  6.356250E+07
                       (23,10,10)  1.663001E-02  5.075562E-07  6.888511E-02  8.345734E-01
       292 0001-01-01 00:29:12.00  1.832924E-02  4.932424E+01  4.934257E+01  6.356250E+07
                       (23,06,10)  1.752619E-02  4.396812E-07  6.012111E-02  7.945414E-01
       293 0001-01-01 00:29:18.00  1.796361E-02  4.932490E+01  4.934286E+01  6.356250E+07
                       (23,06,10)  1.827073E-02  4.242035E-07  4.786741E-02  7.471451E-01
       294 0001-01-01 00:29:24.00  1.759094E-02  4.932557E+01  4.934317E+01  6.356250E+07
                       (22,10,10)  1.561814E-02  2.798788E-07  4.553697E-02  6.975728E-01
       295 0001-01-01 00:29:30.00  1.722849E-02  4.932623E+01  4.934346E+01  6.356250E+07
                       (21,10,10)  1.233327E-02  5.151187E-07  5.002040E-02  6.720636E-01
       296 0001-01-01 00:29:36.00  1.688361E-02  4.932685E+01  4.934374E+01  6.356250E+07
                       (21,10,10)  1.388974E-02  5.256165E-07  5.238781E-02  6.721659E-01
       297 0001-01-01 00:29:42.00  1.655738E-02  4.932744E+01  4.934400E+01  6.356250E+07
                       (21,10,10)  1.534627E-02  5.265221E-07  5.244151E-02  6.683551E-01
       298 0001-01-01 00:29:48.00  1.624883E-02  4.932799E+01  4.934424E+01  6.356250E+07
                       (21,10,10)  1.663483E-02  5.162292E-07  4.959664E-02  6.809243E-01
       299 0001-01-01 00:29:54.00  1.595810E-02  4.932851E+01  4.934447E+01  6.356250E+07
                       (20,07,10)  1.325636E-02  4.150387E-06  5.082852E-02  6.814282E-01
       300 0001-01-01 00:30:00.00  1.568750E-02  4.932899E+01  4.934468E+01  6.356250E+07
                       (20,07,10)  1.487899E-02  4.064607E-06  4.858733E-02  6.703836E-01
      WRT_HIS     - wrote history     fields (Index=1,1) in record = 0000011
      WRT_AVG     - wrote averaged    fields             in record = 0000010
      WRT_RST     - wrote re-start    fields (Index=1,1) in record = 0000002
       301 0001-01-01 00:30:06.00  1.544087E-02  4.932942E+01  4.934486E+01  6.356250E+07
                       (20,07,10)  1.639105E-02  3.984694E-06  4.400569E-02  6.653915E-01
       302 0001-01-01 00:30:12.00  1.522189E-02  4.932980E+01  4.934502E+01  6.356250E+07
                       (19,09,10)  1.378382E-02  2.478898E-05  4.545428E-02  6.695029E-01
       303 0001-01-01 00:30:18.00  1.503217E-02  4.933012E+01  4.934516E+01  6.356250E+07
                       (19,09,10)  1.547996E-02  2.473031E-05  4.578098E-02  6.642410E-01
       304 0001-01-01 00:30:24.00  1.486971E-02  4.933039E+01  4.934526E+01  6.356250E+07
                       (18,09,10)  1.186555E-02  4.354240E-05  5.224574E-02  6.832965E-01
       305 0001-01-01 00:30:30.00  1.472834E-02  4.933061E+01  4.934534E+01  6.356250E+07
                       (18,09,10)  1.337639E-02  4.432613E-05  5.590730E-02  6.949875E-01
       306 0001-01-01 00:30:36.00  1.459833E-02  4.933082E+01  4.934542E+01  6.356250E+07
                       (18,09,10)  1.482041E-02  4.522653E-05  5.720332E-02  6.949396E-01
       307 0001-01-01 00:30:42.00  1.446812E-02  4.933102E+01  4.934549E+01  6.356250E+07
[...]
      1707 0001-01-01 02:50:42.00  6.820825E-03  4.931592E+01  4.932274E+01  6.356250E+07
                       (14,11,10)  1.416428E-03  6.768672E-03  1.239716E-02  2.626927E-01
      1708 0001-01-01 02:50:48.00  6.672831E-03  4.931620E+01  4.932287E+01  6.356250E+07
                       (14,11,10)  1.456828E-03  6.824759E-03  1.315497E-02  2.521205E-01
      1709 0001-01-01 02:50:54.00  6.491518E-03  4.931655E+01  4.932304E+01  6.356250E+07
                       (14,11,10)  1.485502E-03  6.872207E-03  1.378371E-02  2.418931E-01
      1710 0001-01-01 02:51:00.00  6.275387E-03  4.931698E+01  4.932325E+01  6.356250E+07
                       (41,07,10)  3.303263E-03  1.487954E-06  1.940956E-02  2.359150E-01
      WRT_HIS     - wrote history     fields (Index=1,1) in record = 0000058
      WRT_AVG     - wrote averaged    fields             in record = 0000057
      WRT_RST     - wrote re-start    fields (Index=1,1) in record = 0000001
      1711 0001-01-01 02:51:06.00  6.024756E-03  4.931747E+01  4.932349E+01  6.356250E+07
                       (41,07,10)  3.482806E-03  1.852730E-06  2.024192E-02  2.316325E-01
      1712 0001-01-01 02:51:12.00  5.742097E-03  4.931802E+01  4.932376E+01  6.356250E+07
                       (41,07,10)  3.630044E-03  1.784142E-06  2.081581E-02  2.248485E-01
      1713 0001-01-01 02:51:18.00  5.432280E-03  4.931863E+01  4.932406E+01  6.356250E+07
                       (42,08,10)  1.313037E-03  1.654001E-07  2.388394E-02  2.162958E-01
      1714 0001-01-01 02:51:24.00  5.102681E-03  4.931928E+01  4.932438E+01  6.356250E+07
                       (42,08,10)  1.347989E-03  1.769407E-07  2.488001E-02  2.091513E-01
      1715 0001-01-01 02:51:30.00  4.763106E-03  4.931995E+01  4.932472E+01  6.356250E+07
                       (42,09,10)  1.359303E-03  9.439158E-07  2.552371E-02  1.993259E-01
      1716 0001-01-01 02:51:36.00  4.425498E-03  4.932062E+01  4.932504E+01  6.356250E+07
                       (42,14,10)  1.342260E-03  3.023635E-06  2.573403E-02  1.870138E-01
      1717 0001-01-01 02:51:42.00  4.103407E-03  4.932126E+01  4.932536E+01  6.356250E+07
                       (42,15,10)  1.292635E-03  1.439498E-06  2.542206E-02  1.861317E-01
      1718 0001-01-01 02:51:48.00  3.811198E-03  4.932183E+01  4.932564E+01  6.356250E+07
                       (42,15,10)  1.207921E-03  1.420560E-06  2.448721E-02  1.901110E-01
      1719 0001-01-01 02:51:54.00  3.563071E-03  4.932232E+01  4.932588E+01  6.356250E+07
                       (42,15,10)  1.087700E-03  1.019378E-06  2.288207E-02  1.936932E-01
      1720 0001-01-01 02:52:00.00  3.371962E-03  4.932269E+01  4.932607E+01  6.356250E+07
                       (42,15,10)  9.338261E-04  3.502765E-07  2.059772E-02  1.968802E-01
      1721 0001-01-01 02:52:06.00  3.248446E-03  4.932293E+01  4.932618E+01  6.356250E+07
                       (42,15,10)  7.505163E-04  4.017601E-07  1.767054E-02  1.996893E-01
      1722 0001-01-01 02:52:12.00  3.199810E-03  4.932302E+01  4.932622E+01  6.356250E+07
                       (10,08,07)  3.327368E-03  1.235536E-05  1.501865E-02  2.085479E-01
      1723 0001-01-01 02:52:18.00  3.229434E-03  4.932295E+01  4.932618E+01  6.356250E+07
                       (10,08,07)  3.646464E-03  1.242290E-05  1.572390E-02  2.213919E-01
      1724 0001-01-01 02:52:24.00  3.336589E-03  4.932273E+01  4.932607E+01  6.356250E+07
                       (10,08,07)  3.966051E-03  1.251093E-05  1.630221E-02  2.328003E-01
      1725 0001-01-01 02:52:30.00  3.516680E-03  4.932236E+01  4.932588E+01  6.356250E+07
                       (15,08,10)  5.586478E-03  6.910773E-05  1.605962E-02  2.424717E-01
      1726 0001-01-01 02:52:36.00  3.761867E-03  4.932186E+01  4.932563E+01  6.356250E+07
                       (15,08,10)  5.689345E-03  6.915555E-05  1.784909E-02  2.502330E-01
      1727 0001-01-01 02:52:42.00  4.061933E-03  4.932126E+01  4.932532E+01  6.356250E+07
                       (15,08,10)  5.780608E-03  6.920426E-05  1.902282E-02  2.560454E-01
      1728 0001-01-01 02:52:48.00  4.405228E-03  4.932056E+01  4.932497E+01  6.356250E+07
                       (15,08,10)  5.860653E-03  6.924004E-05  1.958846E-02  2.599977E-01
      1729 0001-01-01 02:52:54.00  4.779564E-03  4.931980E+01  4.932458E+01  6.356250E+07
                       (14,06,10)  1.229289E-03  6.820084E-03  1.770430E-02  2.642590E-01
      1730 0001-01-01 02:53:00.00  5.172912E-03  4.931901E+01  4.932418E+01  6.356250E+07
                       (14,06,10)  1.111447E-03  6.946465E-03  1.755884E-02  2.674524E-01
      1731 0001-01-01 02:53:06.00  5.573881E-03  4.931820E+01  4.932377E+01  6.356250E+07
                       (14,06,10)  9.695816E-04  7.082791E-03  1.701974E-02  2.733104E-01
      1732 0001-01-01 02:53:12.00  5.971973E-03  4.931739E+01  4.932336E+01  6.356250E+07
                       (14,06,10)  8.098731E-04  7.225084E-03  1.616292E-02  2.797058E-01
      1733 0001-01-01 02:53:18.00  6.357707E-03  4.931661E+01  4.932297E+01  6.356250E+07
                       (16,08,10)  7.821721E-03  1.159886E-05  1.531586E-02  2.839875E-01
      1734 0001-01-01 02:53:24.00  6.722675E-03  4.931587E+01  4.932259E+01  6.356250E+07
                       (16,08,10)  7.790788E-03  1.137521E-05  1.477959E-02  2.921404E-01
      1735 0001-01-01 02:53:30.00  7.059636E-03  4.931519E+01  4.932225E+01  6.356250E+07
                       (17,08,10)  7.959734E-03  2.173431E-05  1.450812E-02  3.004340E-01
      1736 0001-01-01 02:53:36.00  7.362647E-03  4.931457E+01  4.932193E+01  6.356250E+07
                       (17,08,10)  7.894688E-03  2.173536E-05  1.442836E-02  3.072228E-01
      1737 0001-01-01 02:53:42.00  7.627260E-03  4.931403E+01  4.932166E+01  6.356250E+07
                       (17,08,10)  7.825850E-03  2.174107E-05  1.399723E-02  3.122867E-01
      1738 0001-01-01 02:53:48.00  7.850721E-03  4.931357E+01  4.932142E+01  6.356250E+07
                       (17,08,10)  7.757029E-03  2.174940E-05  1.324051E-02  3.154584E-01
      1739 0001-01-01 02:53:54.00  8.032116E-03  4.931320E+01  4.932123E+01  6.356250E+07
                       (17,08,10)  7.690918E-03  2.175748E-05  1.220705E-02  3.166341E-01
      1740 0001-01-01 02:54:00.00  8.172389E-03  4.931290E+01  4.932107E+01  6.356250E+07
                       (11,08,10)  6.363636E-03  4.507200E-05  1.319086E-02  3.179859E-01
      WRT_HIS     - wrote history     fields (Index=1,1) in record = 0000059
      WRT_AVG     - wrote averaged    fields             in record = 0000058
      WRT_RST     - wrote re-start    fields (Index=1,1) in record = 0000002
      1741 0001-01-01 02:54:06.00  8.274184E-03  4.931269E+01  4.932096E+01  6.356250E+07
                       (11,08,10)  6.181210E-03  4.505783E-05  1.330877E-02  3.187788E-01
      1742 0001-01-01 02:54:12.00  8.341509E-03  4.931254E+01  4.932088E+01  6.356250E+07
                       (11,08,10)  5.997441E-03  4.506082E-05  1.309616E-02  3.176301E-01
      1743 0001-01-01 02:54:18.00  8.379225E-03  4.931245E+01  4.932083E+01  6.356250E+07
                       (10,10,10)  5.679380E-03  3.005003E-03  9.945563E-03  3.145608E-01
      1744 0001-01-01 02:54:24.00  8.392454E-03  4.931241E+01  4.932080E+01  6.356250E+07
                       (10,10,10)  5.432585E-03  3.011125E-03  9.782309E-03  3.096567E-01
      1745 0001-01-01 02:54:30.00  8.385962E-03  4.931241E+01  4.932080E+01  6.356250E+07
                       (14,10,10)  1.167849E-03  9.374400E-03  7.295941E-03  3.069646E-01
      1746 0001-01-01 02:54:36.00  8.363612E-03  4.931244E+01  4.932080E+01  6.356250E+07
                       (14,10,10)  1.251886E-03  9.534299E-03  7.501259E-03  3.096949E-01
      1747 0001-01-01 02:54:42.00  8.327965E-03  4.931250E+01  4.932083E+01  6.356250E+07
                       (14,10,10)  1.322942E-03  9.669773E-03  7.698340E-03  3.175169E-01
      1748 0001-01-01 02:54:48.00  8.280062E-03  4.931258E+01  4.932086E+01  6.356250E+07
                       (14,10,10)  1.380088E-03  9.773744E-03  7.845184E-03  3.241058E-01
      1749 0001-01-01 02:54:54.00  8.219409E-03  4.931269E+01  4.932091E+01  6.356250E+07
                       (14,10,10)  1.422600E-03  9.840530E-03  7.907567E-03  3.292517E-01
      1750 0001-01-01 02:55:00.00  8.144156E-03  4.931282E+01  4.932097E+01  6.356250E+07
                       (28,06,10)  9.425376E-03  2.535593E-04  1.008178E-02  3.357321E-01
      1751 0001-01-01 02:55:06.00  8.051406E-03  4.931300E+01  4.932105E+01  6.356250E+07
                       (28,06,10)  9.546255E-03  2.627566E-04  1.104986E-02  3.424752E-01
      1752 0001-01-01 02:55:12.00  7.937623E-03  4.931321E+01  4.932115E+01  6.356250E+07
                       (28,06,10)  9.649445E-03  2.720000E-04  1.193836E-02  3.480022E-01
      1753 0001-01-01 02:55:18.00  7.799084E-03  4.931347E+01  4.932127E+01  6.356250E+07
                       (29,06,10)  5.708175E-03  2.605437E-03  1.477902E-02  3.520960E-01
      1754 0001-01-01 02:55:24.00  7.632327E-03  4.931380E+01  4.932143E+01  6.356250E+07
                       (29,06,10)  5.669949E-03  2.629883E-03  1.598820E-02  3.545414E-01
      1755 0001-01-01 02:55:30.00  7.434584E-03  4.931418E+01  4.932161E+01  6.356250E+07
                       (29,06,10)  5.614055E-03  2.624411E-03  1.717733E-02  3.556694E-01
      1756 0001-01-01 02:55:36.00  7.204186E-03  4.931463E+01  4.932183E+01  6.356250E+07
                       (29,06,10)  5.538022E-03  2.580793E-03  1.832874E-02  3.557261E-01
      1757 0001-01-01 02:55:42.00  6.940946E-03  4.931514E+01  4.932208E+01  6.356250E+07
                       (29,06,10)  5.439782E-03  2.491280E-03  1.941633E-02  3.539818E-01
      1758 0001-01-01 02:55:48.00  6.646507E-03  4.931572E+01  4.932237E+01  6.356250E+07
                       (29,06,10)  5.317920E-03  2.349166E-03  2.040231E-02  3.502444E-01
      1759 0001-01-01 02:55:54.00  6.324648E-03  4.931635E+01  4.932268E+01  6.356250E+07
                       (29,06,10)  5.171903E-03  2.149170E-03  2.123555E-02  3.443380E-01
      1760 0001-01-01 02:56:00.00  5.981502E-03  4.931703E+01  4.932301E+01  6.356250E+07
                       (29,06,10)  5.002268E-03  1.887651E-03  2.185311E-02  3.361159E-01
      1761 0001-01-01 02:56:06.00  5.625635E-03  4.931773E+01  4.932335E+01  6.356250E+07
                       (29,06,10)  4.810741E-03  1.562748E-03  2.218337E-02  3.254750E-01
      1762 0001-01-01 02:56:12.00  5.267932E-03  4.931843E+01  4.932370E+01  6.356250E+07
                       (29,06,10)  4.600380E-03  1.174376E-03  2.215052E-02  3.123703E-01
      1763 0001-01-01 02:56:18.00  4.921234E-03  4.931912E+01  4.932404E+01  6.356250E+07
                       (29,06,10)  4.374867E-03  7.243624E-04  2.168174E-02  2.968283E-01
      1764 0001-01-01 02:56:24.00  4.599697E-03  4.931975E+01  4.932435E+01  6.356250E+07
                       (29,09,10)  2.968801E-03  1.616339E-03  2.050511E-02  2.789582E-01
      1765 0001-01-01 02:56:30.00  4.317894E-03  4.932031E+01  4.932462E+01  6.356250E+07
                       (29,09,10)  2.722849E-03  1.881466E-03  1.902860E-02  2.589587E-01
      1766 0001-01-01 02:56:36.00  4.089701E-03  4.932075E+01  4.932484E+01  6.356250E+07
                       (29,06,10)  3.662232E-03  9.439716E-04  1.716641E-02  2.375506E-01
      1767 0001-01-01 02:56:42.00  3.927090E-03  4.932107E+01  4.932500E+01  6.356250E+07
                       (29,06,10)  3.433033E-03  1.575609E-03  1.459024E-02  2.377266E-01
      1768 0001-01-01 02:56:48.00  3.838980E-03  4.932124E+01  4.932508E+01  6.356250E+07
                       (29,06,10)  3.218019E-03  2.222047E-03  1.154199E-02  2.388522E-01
      1769 0001-01-01 02:56:54.00  3.830309E-03  4.932125E+01  4.932508E+01  6.356250E+07
                       (01,09,06)  5.041180E-04  2.668435E-06  1.705062E-02  2.408973E-01
      1770 0001-01-01 02:57:00.00  3.901516E-03  4.932110E+01  4.932500E+01  6.356250E+07
                       (01,07,06)  6.364984E-04  3.379459E-06  1.859199E-02  2.437933E-01
      WRT_HIS     - wrote history     fields (Index=1,1) in record = 0000060
      WRT_AVG     - wrote averaged    fields             in record = 0000059
      WRT_RST     - wrote re-start    fields (Index=1,1) in record = 0000001
      1771 0001-01-01 02:57:06.00  4.048484E-03  4.932079E+01  4.932484E+01  6.356250E+07
                       (01,07,06)  7.541272E-04  3.350448E-06  2.001153E-02  2.474403E-01
      1772 0001-01-01 02:57:12.00  4.263009E-03  4.932036E+01  4.932462E+01  6.356250E+07
                       (01,07,06)  8.535374E-04  2.468723E-06  2.126107E-02  2.517193E-01
      1773 0001-01-01 02:57:18.00  4.533727E-03  4.931980E+01  4.932434E+01  6.356250E+07
                       (01,08,06)  9.322501E-04  2.257230E-07  2.230346E-02  2.565025E-01
      1774 0001-01-01 02:57:24.00  4.847341E-03  4.931917E+01  4.932402E+01  6.356250E+07
                       (01,09,06)  9.886445E-04  1.147345E-06  2.310876E-02  2.616647E-01
      1775 0001-01-01 02:57:30.00  5.189934E-03  4.931847E+01  4.932366E+01  6.356250E+07
                       (01,14,07)  8.706399E-05  3.381768E-06  2.471426E-02  2.670891E-01
      1776 0001-01-01 02:57:36.00  5.548153E-03  4.931775E+01  4.932330E+01  6.356250E+07
                       (01,15,07)  1.011317E-04  1.544921E-06  2.511241E-02  2.760468E-01
      1777 0001-01-01 02:57:42.00  5.910100E-03  4.931702E+01  4.932293E+01  6.356250E+07
                       (01,15,08)  5.511252E-04  1.427520E-06  2.476792E-02  2.877936E-01
      1778 0001-01-01 02:57:48.00  6.265842E-03  4.931629E+01  4.932256E+01  6.356250E+07
                       (29,06,10)  2.543927E-03  5.466729E-03  1.833859E-02  2.990571E-01
      1779 0001-01-01 02:57:54.00  6.607545E-03  4.931560E+01  4.932221E+01  6.356250E+07
                       (29,06,10)  2.631956E-03  5.263729E-03  1.899241E-02  3.082291E-01
      1780 0001-01-01 02:58:00.00  6.929325E-03  4.931494E+01  4.932187E+01  6.356250E+07
                       (29,06,10)  2.741805E-03  4.989991E-03  1.912516E-02  3.162504E-01
      1781 0001-01-01 02:58:06.00  7.226921E-03  4.931434E+01  4.932156E+01  6.356250E+07
                       (29,06,10)  2.870749E-03  4.662798E-03  1.880163E-02  3.253652E-01
      1782 0001-01-01 02:58:12.00  7.497333E-03  4.931378E+01  4.932128E+01  6.356250E+07
                       (29,06,10)  3.015825E-03  4.298630E-03  1.810715E-02  3.336906E-01
      1783 0001-01-01 02:58:18.00  7.738515E-03  4.931329E+01  4.932103E+01  6.356250E+07
                       (29,06,10)  3.173851E-03  3.912225E-03  1.713341E-02  3.410189E-01
      1784 0001-01-01 02:58:24.00  7.949162E-03  4.931285E+01  4.932080E+01  6.356250E+07
                       (29,06,10)  3.341454E-03  3.516069E-03  1.597191E-02  3.471572E-01
      1785 0001-01-01 02:58:30.00  8.128611E-03  4.931248E+01  4.932061E+01  6.356250E+07
                       (31,08,10)  8.527950E-03  1.424164E-06  1.354900E-02  3.519378E-01
      1786 0001-01-01 02:58:36.00  8.276808E-03  4.931217E+01  4.932045E+01  6.356250E+07
                       (10,08,06)  2.574714E-03  8.377879E-06  1.916936E-02  3.552261E-01
      1787 0001-01-01 02:58:42.00  8.394301E-03  4.931192E+01  4.932031E+01  6.356250E+07
                       (10,08,06)  2.769518E-03  8.261513E-06  1.934093E-02  3.569274E-01
      1788 0001-01-01 02:58:48.00  8.482205E-03  4.931173E+01  4.932021E+01  6.356250E+07
                       (10,08,06)  2.977164E-03  8.149828E-06  1.945961E-02  3.574015E-01
      1789 0001-01-01 02:58:54.00  8.542108E-03  4.931159E+01  4.932014E+01  6.356250E+07
                       (10,08,06)  3.194670E-03  8.038860E-06  1.951102E-02  3.602644E-01
      1790 0001-01-01 02:59:00.00  8.575891E-03  4.931151E+01  4.932009E+01  6.356250E+07
                       (10,08,06)  3.417754E-03  7.926889E-06  1.948153E-02  3.618415E-01
      1791 0001-01-01 02:59:06.00  8.585485E-03  4.931148E+01  4.932006E+01  6.356250E+07
                       (10,08,06)  3.640887E-03  7.816830E-06  1.935929E-02  3.620568E-01
      1792 0001-01-01 02:59:12.00  8.572578E-03  4.931149E+01  4.932006E+01  6.356250E+07
                       (14,10,10)  4.776325E-03  1.377154E-02  4.621989E-03  3.608798E-01
      1793 0001-01-01 02:59:18.00  8.538335E-03  4.931154E+01  4.932008E+01  6.356250E+07
                       (14,10,10)  4.892686E-03  1.393524E-02  5.101176E-03  3.583276E-01
      1794 0001-01-01 02:59:24.00  8.483160E-03  4.931164E+01  4.932012E+01  6.356250E+07
                       (14,10,10)  4.999972E-03  1.407679E-02  5.634425E-03  3.563032E-01
      1795 0001-01-01 02:59:30.00  8.406559E-03  4.931177E+01  4.932018E+01  6.356250E+07
                       (14,10,10)  5.098270E-03  1.419559E-02  6.231911E-03  3.579836E-01
      1796 0001-01-01 02:59:36.00  8.307132E-03  4.931196E+01  4.932026E+01  6.356250E+07
                       (14,10,10)  5.187514E-03  1.429219E-02  6.900641E-03  3.589678E-01
      1797 0001-01-01 02:59:42.00  8.182714E-03  4.931219E+01  4.932037E+01  6.356250E+07
                       (14,10,10)  5.267296E-03  1.436793E-02  7.643983E-03  3.592190E-01
      1798 0001-01-01 02:59:48.00  8.030638E-03  4.931248E+01  4.932051E+01  6.356250E+07
                       (14,10,10)  5.336674E-03  1.442446E-02  8.459218E-03  3.587068E-01
      1799 0001-01-01 02:59:54.00  7.848108E-03  4.931283E+01  4.932068E+01  6.356250E+07
                       (14,10,10)  5.393994E-03  1.446322E-02  9.335779E-03  3.574065E-01
      1800 0001-01-01 03:00:00.00  7.632612E-03  4.931325E+01  4.932088E+01  6.356250E+07
                       (14,10,10)  5.436751E-03  1.448479E-02  1.025457E-02  3.552972E-01
      WRT_HIS     - wrote history     fields (Index=1,1) in record = 0000061
      WRT_AVG     - wrote averaged    fields             in record = 0000060
      WRT_RST     - wrote re-start    fields (Index=1,1) in record = 0000002

 Elapsed CPU time (seconds):

 Thread #  0 CPU:      12.043
 Total:                12.043

 Nonlinear model elapsed CPU time profile, Grid: 01

  Processing of input data .........................         0.016  ( 0.1295 %)
  Processing of output time averaged data ..........         0.047  ( 0.3886 %)
  Computation of vertical boundary conditions ......         0.016  ( 0.1295 %)
  Computation of global information integrals ......         0.374  ( 3.1088 %)
  Writing of output data ...........................         0.156  ( 1.2953 %)
  Model 2D kernel ..................................         3.557  (29.5336 %)
  2D/3D coupling, vertical metrics .................         0.016  ( 0.1295 %)
  Omega vertical velocity ..........................         0.047  ( 0.3886 %)
  Equation of state for seawater ...................         0.078  ( 0.6477 %)
  GLS vertical mixing parameterization .............         5.834  (48.4457 %)
  3D equations right-side terms ....................         0.281  ( 2.3316 %)
  3D equations predictor step ......................         0.343  ( 2.8497 %)
  Pressure gradient ................................         0.281  ( 2.3316 %)
  Corrector time-step for 3D momentum ..............         0.452  ( 3.7565 %)
  Corrector time-step for tracers ..................         0.390  ( 3.2383 %)
                                              Total:        11.887   98.7047

  Unique code regions profiled .....................        11.887   98.7047 %
  Residual, non-profiled code ......................         0.156    1.2953 %


 All percentages are with respect to total time =           12.043


 ROMS/TOMS - Output NetCDF summary for Grid 01:
             number of time records written in HISTORY file = 00000061
             number of time records written in RESTART file = 00000002
             number of time records written in AVERAGE file = 00000060

 Analytical header files used:

     ROMS/Functionals/ana_btflux.h
     ROMS/Functionals/ana_smflux.h
     ROMS/Functionals/ana_stflux.h

 ROMS/TOMS: DONE... Thursday - November 30, 2017 -  9:40:33 AM
