--------------------------------------------------------------------------------
 Model Input Parameters:  ROMS/TOMS version 3.7  
                          Thursday - January 31, 2019 -  5:19:47 PM
--------------------------------------------------------------------------------

 Large et al. (1994) KPP Test

 Operating system : Linux
 CPU/hardware     : x86_64
 Compiler system  : gfortran
 Compiler command : /bin/gfortran
 Compiler flags   : -frepack-arrays -O3 -ffast-math -

 Git Origin URL: git@github.com:hadfieldnz/roms-trunk-mgh.git
 Git Revision  : master commit 25c99104ec433e7ee92ab833c03c63036acf7697
 Git Status    : The working tree is clean

 Host Name     : niwa-1019320.niwa.local
 Local Root    : /home/hadfield/ROMS/roms-trunk-mgh
 Header Dir    : /home/hadfield/ROMS/roms-test-mgh/lmd_test
 Header file   : lmd_test.h
 Analytical Dir: /home/hadfield/ROMS/roms-test-mgh/lmd_test

 Resolution, Grid 01: 10x10x50,  Parallel Threads: 1,  Tiling: 1x1


 Physical Parameters, Grid: 01
 =============================

        720  ntimes            Number of timesteps for 3-D equations.
    120.000  dt                Timestep size (s) for 3-D equations.
         10  ndtfast           Number of timesteps for 2-D equations between
                                 each 3D timestep.
          1  ERstr             Starting ensemble/perturbation run number.
          1  ERend             Ending ensemble/perturbation run number.
          0  nrrec             Number of restart records to read from disk.
          T  LcycleRST         Switch to recycle time-records in restart file.
        720  nRST              Number of timesteps between the writing of data
                                 into restart fields.
          1  ninfo             Number of timesteps between print of information
                                 to standard output.
          1  nSTA              Number of timesteps between the writing of data
                                 the stations file.
          T  ldefout           Switch to create a new output NetCDF file(s).
         60  nHIS              Number of timesteps between the writing fields
                                 into history file.
          0  nQCK              Number of timesteps between the writing fields
                                 into quicksave file.
 0.0000E+00  nl_visc2          NLM Horizontal, harmonic mixing coefficient
                                 (m2/s) for momentum.
          F  LuvSponge         Turning OFF sponge on horizontal momentum.
          F  LtracerSponge(01) Turning OFF sponge on tracer 01: temp
          F  LtracerSponge(02) Turning OFF sponge on tracer 02: salt
 1.0000E-06  Akt_bak(01)       Background vertical mixing coefficient (m2/s)
                                 for tracer 01: temp
 1.0000E-06  Akt_bak(02)       Background vertical mixing coefficient (m2/s)
                                 for tracer 02: salt
 1.0000E-05  Akv_bak           Background vertical mixing coefficient (m2/s)
                                 for momentum.
 3.0000E-04  rdrg              Linear bottom drag coefficient (m/s).
 3.0000E-03  rdrg2             Quadratic bottom drag coefficient.
 2.0000E-02  Zob               Bottom roughness (m).
          1  lmd_Jwt           Jerlov water type.
          2  Vtransform        S-coordinate transformation equation.
          4  Vstretching       S-coordinate stretching function.
 0.0000E+00  theta_s           S-coordinate surface control parameter.
 0.0000E+00  theta_b           S-coordinate bottom  control parameter.
 1.0000E+16  Tcline            S-coordinate surface/bottom layer width (m) used
                                 in vertical coordinate stretching.
   1025.000  rho0              Mean density (kg/m3) for Boussinesq approximation.
      0.000  dstart            Time-stamp assigned to model initialization (days).
       0.00  time_ref          Reference time for units attribute (yyyymmdd.dd)
 0.0000E+00  Tnudg(01)         Nudging/relaxation time scale (days)
                                 for tracer 01: temp
 0.0000E+00  Tnudg(02)         Nudging/relaxation time scale (days)
                                 for tracer 02: salt
 0.0000E+00  Znudg             Nudging/relaxation time scale (days)
                                 for free-surface.
 0.0000E+00  M2nudg            Nudging/relaxation time scale (days)
                                 for 2D momentum.
 0.0000E+00  M3nudg            Nudging/relaxation time scale (days)
                                 for 3D momentum.
 0.0000E+00  obcfac            Factor between passive and active
                                 open boundary conditions.
          F  VolCons(1)        NLM western  edge boundary volume conservation.
          F  VolCons(2)        NLM southern edge boundary volume conservation.
          F  VolCons(3)        NLM eastern  edge boundary volume conservation.
          F  VolCons(4)        NLM northern edge boundary volume conservation.
     10.000  T0                Background potential temperature (C) constant.
     35.000  S0                Background salinity (PSU) constant.
     -1.000  gamma2            Slipperiness variable: free-slip (1.0) or 
                                                      no-slip (-1.0).
          F  LuvSrc            Turning OFF momentum point Sources/Sinks.
          F  LwSrc             Turning OFF volume influx point Sources/Sinks.
          F  LtracerSrc(01)    Turning OFF point Sources/Sinks on tracer 01: temp
          F  LtracerSrc(02)    Turning OFF point Sources/Sinks on tracer 02: salt
          F  LsshCLM           Turning OFF processing of SSH climatology.
          F  Lm2CLM            Turning OFF processing of 2D momentum climatology.
          F  Lm3CLM            Turning OFF processing of 3D momentum climatology.
          F  LtracerCLM(01)    Turning OFF processing of climatology tracer 01: temp
          F  LtracerCLM(02)    Turning OFF processing of climatology tracer 02: salt
          F  LnudgeM2CLM       Turning OFF nudging of 2D momentum climatology.
          F  LnudgeM3CLM       Turning OFF nudging of 3D momentum climatology.
          F  LnudgeTCLM(01)    Turning OFF nudging of climatology tracer 01: temp
          F  LnudgeTCLM(02)    Turning OFF nudging of climatology tracer 02: salt

          T  Hout(idFsur)      Write out free-surface.
          T  Hout(idUbar)      Write out 2D U-momentum component.
          T  Hout(idVbar)      Write out 2D V-momentum component.
          T  Hout(idUvel)      Write out 3D U-momentum component.
          T  Hout(idVvel)      Write out 3D V-momentum component.
          T  Hout(idWvel)      Write out W-momentum component.
          T  Hout(idOvel)      Write out omega vertical velocity.
          T  Hout(idTvar)      Write out tracer 01: temp
          T  Hout(idTvar)      Write out tracer 02: salt
          T  Hout(idUsms)      Write out surface U-momentum stress.
          T  Hout(idVsms)      Write out surface V-momentum stress.
          T  Hout(idUbms)      Write out bottom U-momentum stress.
          T  Hout(idVbms)      Write out bottom V-momentum stress.
          T  Hout(idDano)      Write out density anomaly.
          T  Hout(idVvis)      Write out vertical viscosity: AKv.
          T  Hout(idTdif)      Write out vertical diffusion: AKt(itemp).
          T  Hout(idSdif)      Write out vertical diffusion: AKt(isalt).
          T  Hout(idHsbl)      Write out depth of surface boundary layer.
          T  Hout(idHbbl)      Write out depth of bottom boundary layer.

 Output/Input Files:

             Output Restart File:  ocean_rst.nc
             Output History File:  ocean_his.nc
            Output Stations File:  ocean_sta.nc
          Station positions File:  stations_lmd_test.in

 Tile partition information for Grid 01:  10x10x50  tiling: 1x1

     tile     Istr     Iend     Jstr     Jend     Npts

        0        1       10        1       10     5000

 Tile minimum and maximum fractional coordinates for Grid 01:
   (interior points only)

     tile     Xmin     Xmax     Ymin     Ymax     grid

        0    -1.50    12.50    -1.50    12.50  RHO-points

        0    -2.00    12.00    -1.50    12.50    U-points

        0    -1.50    12.50    -2.00    12.00    V-points


 Stations Parameters, Grid: 01
 =============================

          1  Nstation        Number of stations to write out into stations file.
          T  Sout(idFsur)    Write out free-surface.
          T  Sout(idUbar)    Write out 2D U-momentum component.
          T  Sout(idVbar)    Write out 2D V-momentum component.
          T  Sout(idUvel)    Write out 3D U-momentum component.
          T  Sout(idVvel)    Write out 3D V-momentum component.
          T  Sout(idWvel)    Write out W-momentum component.
          T  Sout(idOvel)    Write out omega vertical velocity.
          T  Sout(idTvar)    Write out tracer 01: temp
          T  Sout(idTvar)    Write out tracer 02: salt
          T  Sout(idUsms)    Write out surface U-momentum stress.
          T  Sout(idVsms)    Write out surface V-momentum stress.
          T  Sout(idUbms)    Write out bottom U-momentum stress.
          T  Sout(idVbms)    Write out bottom V-momentum stress.
          T  Sout(idDano)    Write out density anomaly.
          T  Sout(idVvis)    Write out vertical viscosity coefficient.
          T  Sout(idTdif)    Write out vertical T-diffusion coefficient.
          T  Sout(idSdif)    Write out vertical S-diffusion coefficient.
          T  Sout(idHsbl)    Write out depth of surface boundary layer.
          T  Sout(idHbbl)    Write out depth of bottom boundary layer.

             Flag and positions for station 0001:  0     5.0000    5.0000

 Lateral Boundary Conditions: NLM
 ============================

 Variable               Grid  West Edge    South Edge   East Edge    North Edge
 ---------              ----  ----------   ----------   ----------   ----------

 zeta                     1   Periodic     Periodic     Periodic     Periodic

 ubar                     1   Periodic     Periodic     Periodic     Periodic

 vbar                     1   Periodic     Periodic     Periodic     Periodic

 u                        1   Periodic     Periodic     Periodic     Periodic

 v                        1   Periodic     Periodic     Periodic     Periodic

 temp                     1   Periodic     Periodic     Periodic     Periodic

 salt                     1   Periodic     Periodic     Periodic     Periodic

 Activated C-preprocessing Options:

 LMD_TEST            Large et al. (1994) KPP Test
 ANA_BSFLUX          Analytical kinematic bottom salinity flux.
 ANA_BTFLUX          Analytical kinematic bottom temperature flux.
 ANA_GRID            Analytical grid set-up.
 ANA_INITIAL         Analytical initial conditions.
 ANA_SMFLUX          Analytical kinematic surface momentum flux.
 ANA_SRFLUX          Analytical kinematic shortwave radiation flux.
 ANA_SSFLUX          Analytical kinematic surface salinity flux.
 ANA_STFLUX          Analytical kinematic surface temperature flux.
 ASSUMED_SHAPE       Using assumed-shape arrays.
 DJ_GRADPS           Parabolic Splines density Jacobian (Shchepetkin, 2002).
 DOUBLE_PRECISION    Double precision arithmetic numerical kernel.
 LMD_BKPP            KPP bottom boundary layer mixing.
 LMD_CONVEC          LMD convective mixing due to shear instability.
 LMD_DDMIX           LMD double-diffusive mixing.
 LMD_MIXING          Large/McWilliams/Doney interior mixing.
 LMD_NONLOCAL        LMD convective nonlocal transport.
 LMD_RIMIX           LMD diffusivity due to shear instability.
 LMD_SKPP            KPP surface boundary layer mixing.
 MIX_S_UV            Mixing of momentum along constant S-surfaces.
 NONLINEAR           Nonlinear Model.
 NONLIN_EOS          Nonlinear Equation of State for seawater.
 POWER_LAW           Power-law shape time-averaging barotropic filter.
 PROFILE             Time profiling activated .
 RI_SPLINES          Parabolic Spline Reconstruction for Richardson Number.
 !RST_SINGLE         Double precision fields in restart NetCDF file.
 SALINITY            Using salinity.
 SOLVE3D             Solving 3D Primitive Equations.
 SPLINES_VDIFF       Parabolic Spline Reconstruction for Vertical Diffusion.
 SPLINES_VVISC       Parabolic Spline Reconstruction for Vertical Viscosity.
 STATIONS            Writing out station data.
 TS_A4HADVECTION     Fourth-order Akima horizontal advection of tracers.
 TS_A4VADVECTION     Fourth-order Akima vertical advection of tracers.
 UV_ADV              Advection of momentum.
 UV_COR              Coriolis term.
 UV_U3HADVECTION     Third-order upstream horizontal advection of 3D momentum.
 UV_C4VADVECTION     Fourth-order centered vertical advection of momentum.
 UV_QDRAG            Quadratic bottom stress.
 UV_VIS2             Harmonic mixing of momentum.
 VAR_RHO_2D          Variable density barotropic mode.

 Process Information:

 Thread #    0 (pid=   18679) is active.

 INITIAL: Configuring and initializing forward nonlinear model ...
 *******

    ANA_GRID    - x-location of PSI-points: x_psi
                   (Grid = 01, Min =  0.00000000E+00 Max =  9.00000000E+04)
    ANA_GRID    - y-location of PSI-points: y_psi
                   (Grid = 01, Min =  0.00000000E+00 Max =  9.00000000E+04)
    ANA_GRID    - x-location of RHO-points: x_rho
                   (Grid = 01, Min =  5.00000000E+03 Max =  9.50000000E+04)
    ANA_GRID    - y-location of RHO-points: y_rho
                   (Grid = 01, Min =  5.00000000E+03 Max =  9.50000000E+04)
    ANA_GRID    - x-location of U-points: x_u
                   (Grid = 01, Min =  0.00000000E+00 Max =  9.00000000E+04)
    ANA_GRID    - y-location of U-points: y_u
                   (Grid = 01, Min =  5.00000000E+03 Max =  9.50000000E+04)
    ANA_GRID    - x-location of V-points: x_v
                   (Grid = 01, Min =  5.00000000E+03 Max =  9.50000000E+04)
    ANA_GRID    - y-location of V-points: y_v
                   (Grid = 01, Min =  0.00000000E+00 Max =  9.00000000E+04)
    ANA_GRID    - reciprocal XI-grid spacing: pm
                   (Grid = 01, Min =  1.00000000E-04 Max =  1.00000000E-04)
    ANA_GRID    - reciprocal ETA-grid spacing: pn
                   (Grid = 01, Min =  1.00000000E-04 Max =  1.00000000E-04)
    ANA_GRID    - angle between XI-axis and EAST: angler
                   (Grid = 01, Min =  0.00000000E+00 Max =  0.00000000E+00)
    ANA_GRID    - Coriolis parameter at RHO-points: f
                   (Grid = 01, Min =  1.09000000E-04 Max =  1.09000000E-04)
    ANA_GRID    - bathymetry at RHO-points: h
                   (Grid = 01, Min =  5.00000000E+01 Max =  5.00000000E+01)

 Vertical S-coordinate System, Grid 01:

 level   S-coord     Cs-curve   Z   at hmin       at hc    half way     at hmax

    50   0.0000000   0.0000000        0.000       0.000       0.000       0.000
    49  -0.0200000  -0.0004000       -1.000      -1.000      -1.000      -1.000
    48  -0.0400000  -0.0016000       -2.000      -2.000      -2.000      -2.000
    47  -0.0600000  -0.0036000       -3.000      -3.000      -3.000      -3.000
    46  -0.0800000  -0.0064000       -4.000      -4.000      -4.000      -4.000
    45  -0.1000000  -0.0100000       -5.000      -5.000      -5.000      -5.000
    44  -0.1200000  -0.0144000       -6.000      -6.000      -6.000      -6.000
    43  -0.1400000  -0.0196000       -7.000      -7.000      -7.000      -7.000
    42  -0.1600000  -0.0256000       -8.000      -8.000      -8.000      -8.000
    41  -0.1800000  -0.0324000       -9.000      -9.000      -9.000      -9.000
    40  -0.2000000  -0.0400000      -10.000     -10.000     -10.000     -10.000
    39  -0.2200000  -0.0484000      -11.000     -11.000     -11.000     -11.000
    38  -0.2400000  -0.0576000      -12.000     -12.000     -12.000     -12.000
    37  -0.2600000  -0.0676000      -13.000     -13.000     -13.000     -13.000
    36  -0.2800000  -0.0784000      -14.000     -14.000     -14.000     -14.000
    35  -0.3000000  -0.0900000      -15.000     -15.000     -15.000     -15.000
    34  -0.3200000  -0.1024000      -16.000     -16.000     -16.000     -16.000
    33  -0.3400000  -0.1156000      -17.000     -17.000     -17.000     -17.000
    32  -0.3600000  -0.1296000      -18.000     -18.000     -18.000     -18.000
    31  -0.3800000  -0.1444000      -19.000     -19.000     -19.000     -19.000
    30  -0.4000000  -0.1600000      -20.000     -20.000     -20.000     -20.000
    29  -0.4200000  -0.1764000      -21.000     -21.000     -21.000     -21.000
    28  -0.4400000  -0.1936000      -22.000     -22.000     -22.000     -22.000
    27  -0.4600000  -0.2116000      -23.000     -23.000     -23.000     -23.000
    26  -0.4800000  -0.2304000      -24.000     -24.000     -24.000     -24.000
    25  -0.5000000  -0.2500000      -25.000     -25.000     -25.000     -25.000
    24  -0.5200000  -0.2704000      -26.000     -26.000     -26.000     -26.000
    23  -0.5400000  -0.2916000      -27.000     -27.000     -27.000     -27.000
    22  -0.5600000  -0.3136000      -28.000     -28.000     -28.000     -28.000
    21  -0.5800000  -0.3364000      -29.000     -29.000     -29.000     -29.000
    20  -0.6000000  -0.3600000      -30.000     -30.000     -30.000     -30.000
    19  -0.6200000  -0.3844000      -31.000     -31.000     -31.000     -31.000
    18  -0.6400000  -0.4096000      -32.000     -32.000     -32.000     -32.000
    17  -0.6600000  -0.4356000      -33.000     -33.000     -33.000     -33.000
    16  -0.6800000  -0.4624000      -34.000     -34.000     -34.000     -34.000
    15  -0.7000000  -0.4900000      -35.000     -35.000     -35.000     -35.000
    14  -0.7200000  -0.5184000      -36.000     -36.000     -36.000     -36.000
    13  -0.7400000  -0.5476000      -37.000     -37.000     -37.000     -37.000
    12  -0.7600000  -0.5776000      -38.000     -38.000     -38.000     -38.000
    11  -0.7800000  -0.6084000      -39.000     -39.000     -39.000     -39.000
    10  -0.8000000  -0.6400000      -40.000     -40.000     -40.000     -40.000
     9  -0.8200000  -0.6724000      -41.000     -41.000     -41.000     -41.000
     8  -0.8400000  -0.7056000      -42.000     -42.000     -42.000     -42.000
     7  -0.8600000  -0.7396000      -43.000     -43.000     -43.000     -43.000
     6  -0.8800000  -0.7744000      -44.000     -44.000     -44.000     -44.000
     5  -0.9000000  -0.8100000      -45.000     -45.000     -45.000     -45.000
     4  -0.9200000  -0.8464000      -46.000     -46.000     -46.000     -46.000
     3  -0.9400000  -0.8836000      -47.000     -47.000     -47.000     -47.000
     2  -0.9600000  -0.9216000      -48.000     -48.000     -48.000     -48.000
     1  -0.9800000  -0.9604000      -49.000     -49.000     -49.000     -49.000
     0  -1.0000000  -1.0000000      -50.000     -50.000     -50.000     -50.000

 Time Splitting Weights for Grid 01:    ndtfast =  10    nfast =  15
 ==================================

    Primary            Secondary            Accumulated to Current Step

  1 0.0014850648765542 0.1000000000000000 0.0014850648765542 0.1000000000000000
  2 0.0059386031399402 0.0998514935123446 0.0074236680164944 0.1998514935123446
  3 0.0133457074936657 0.0992576331983505 0.0207693755101601 0.2991091267106951
  4 0.0236484051180389 0.0979230624489840 0.0444177806281990 0.3970321891596791
  5 0.0366959666818608 0.0955582219371801 0.0811137473100598 0.4925904110968592
  6 0.0521753389587947 0.0918886252689940 0.1332890862688545 0.5844790363658532
  7 0.0695217010484137 0.0866710913731145 0.2028107873172681 0.6711501277389678
  8 0.0878091442019233 0.0797189212682732 0.2906199315191914 0.7508690490072409
  9 0.1056214752525633 0.0709380068480809 0.3962414067717547 0.8218070558553218
 10 0.1209031436506851 0.0603758593228245 0.5171445504224399 0.8821829151781463
 11 0.1307902921035067 0.0482855449577560 0.6479348425259466 0.9304684601359023
 12 0.1314219308195445 0.0352065157474053 0.7793567733454911 0.9656749758833076
 13 0.1177312353577226 0.0220643226654509 0.8970880087032138 0.9877392985487585
 14 0.0832169680811588 0.0102911991296786 0.9803049767843727 0.9980304976784371
 15 0.0196950232156274 0.0019695023215627 1.0000000000000000 0.9999999999999999

 ndtfast, nfast =   10  15   nfast/ndtfast =  1.50000

 Centers of gravity and integrals (values must be 1, 1, approx 1/2, 1, 1):

    1.000000000000 1.083803072626 0.541901536313 1.000000000000 1.000000000000

 Power filter parameters, Fgamma, gamma =  0.28400   0.00000

 Metrics information for Grid 01:
 ===============================

 Minimum X-grid spacing, DXmin =  1.00000000E+01 km
 Maximum X-grid spacing, DXmax =  1.00000000E+01 km
 Minimum Y-grid spacing, DYmin =  1.00000000E+01 km
 Maximum Y-grid spacing, DYmax =  1.00000000E+01 km
 Minimum Z-grid spacing, DZmin =  1.00000000E+00 m
 Maximum Z-grid spacing, DZmax =  1.00000000E+00 m

 Minimum barotropic Courant Number =  3.75851034E-02
 Maximum barotropic Courant Number =  3.75851034E-02
 Maximum Coriolis   Courant Number =  1.30800000E-02

    ANA_INITIAL - vertically integrated u-momentum component: ubar
                   (Grid = 01, Min =  0.00000000E+00 Max =  0.00000000E+00)
    ANA_INITIAL - vertically integrated v-momentum component: vbar
                   (Grid = 01, Min =  0.00000000E+00 Max =  0.00000000E+00)
    ANA_INITIAL - free-surface: zeta
                   (Grid = 01, Min =  0.00000000E+00 Max =  0.00000000E+00)
    ANA_INITIAL - u-momentum component: u
                   (Grid = 01, Min =  0.00000000E+00 Max =  0.00000000E+00)
    ANA_INITIAL - v-momentum component: v
                   (Grid = 01, Min =  0.00000000E+00 Max =  0.00000000E+00)
    ANA_INITIAL - potential temperature: temp
                   (Grid = 01, Min =  7.10000000E+00 Max =  1.30000000E+01)
    ANA_INITIAL - salinity: salt
                   (Grid = 01, Min =  3.50000000E+01 Max =  3.50000000E+01)

 Basin information for Grid 01:

 Maximum grid stiffness ratios:  rx0 =   0.000000E+00 (Beckmann and Haidvogel)
                                 rx1 =   3.552714E-15 (Haney)

 Initial domain volumes:  TotVolume =  5.0000000000E+11 m3
                         MinCellVol =  1.0000000000E+08 m3
                         MaxCellVol =  1.0000000000E+08 m3
                            Max/Min =  1.0000000000E+00

 NL ROMS/TOMS: started time-stepping: (Grid: 01 TimeSteps: 000000000001 - 000000000720)


 TIME-STEP YYYY-MM-DD hh:mm:ss.ss  KINETIC_ENRG   POTEN_ENRG    TOTAL_ENRG    NET_VOLUME
                     C => (i,j,k)       Cu            Cv            Cw         Max Speed

         0 0001-01-01 00:00:00.00  0.000000E+00  2.456334E+02  2.456334E+02  5.000000E+11
                       (00,00,00)  0.000000E+00  0.000000E+00  0.000000E+00  0.000000E+00
      DEF_HIS     - creating  history      file, Grid 01: ocean_his.nc
      WRT_HIS     - wrote history     fields (Index=1,1) in record = 0000001
      DEF_STATION - creating  stations     file, Grid 01: ocean_sta.nc
      DEF_RST   - creating restart file: ocean_rst.nc
         1 0001-01-01 00:02:00.00  0.000000E+00  2.456334E+02  2.456334E+02  5.000000E+11
                       (00,00,00)  0.000000E+00  0.000000E+00  0.000000E+00  0.000000E+00
         2 0001-01-01 00:04:00.00  1.233889E-09  2.456334E+02  2.456334E+02  5.000000E+11
                       (01,01,50)  5.332914E-08  4.013316E-06  0.000000E+00  3.344725E-04
         3 0001-01-01 00:06:00.00  1.270463E-08  2.456334E+02  2.456334E+02  5.000000E+11
                       (01,01,50)  3.894233E-07  1.316862E-05  5.110863E-22  1.097865E-03
         4 0001-01-01 00:08:00.00  4.833862E-08  2.456334E+02  2.456334E+02  5.000000E+11
                       (01,01,50)  1.117996E-06  2.548195E-05  1.979458E-22  2.125539E-03
         5 0001-01-01 00:10:00.00  1.240399E-07  2.456334E+02  2.456334E+02  5.000000E+11
                       (01,01,50)  2.303605E-06  4.032959E-05  1.582692E-21  3.366277E-03
         6 0001-01-01 00:12:00.00  2.565254E-07  2.456334E+02  2.456334E+02  5.000000E+11
                       (01,01,50)  4.017831E-06  5.721297E-05  2.637885E-21  4.779490E-03
         7 0001-01-01 00:14:00.00  4.626551E-07  2.456334E+02  2.456334E+02  5.000000E+11
                       (01,01,50)  6.309278E-06  7.573848E-05  2.110335E-21  6.333401E-03
         8 0001-01-01 00:16:00.00  7.591139E-07  2.456334E+02  2.456334E+02  5.000000E+11
                       (01,01,50)  9.214519E-06  9.559335E-05  4.212937E-21  8.003036E-03
         9 0001-01-01 00:18:00.00  1.162279E-06  2.456334E+02  2.456334E+02  5.000000E+11
                       (01,01,50)  1.276115E-05  1.165266E-04  2.025101E-21  9.768609E-03
        10 0001-01-01 00:20:00.00  1.688189E-06  2.456334E+02  2.456334E+02  5.000000E+11
                       (01,01,50)  1.697002E-05  1.383350E-04  4.241854E-21  1.161433E-02
        11 0001-01-01 00:22:00.00  2.352559E-06  2.456334E+02  2.456334E+02  5.000000E+11
                       (01,01,50)  2.185686E-05  1.608520E-04  1.679928E-20  1.352751E-02
        12 0001-01-01 00:24:00.00  3.170820E-06  2.456334E+02  2.456334E+02  5.000000E+11
                       (01,01,50)  2.743347E-05  1.839398E-04  8.437752E-21  1.549786E-02
        13 0001-01-01 00:26:00.00  4.158169E-06  2.456334E+02  2.456334E+02  5.000000E+11
                       (10,01,50)  3.370857E-05  2.074832E-04  7.421147E-24  1.751697E-02
        14 0001-01-01 00:28:00.00  5.329614E-06  2.456334E+02  2.456334E+02  5.000000E+11
                       (01,01,50)  4.068845E-05  2.313849E-04  2.533582E-20  1.957793E-02
        15 0001-01-01 00:30:00.00  6.700014E-06  2.456334E+02  2.456334E+02  5.000000E+11
                       (01,01,50)  4.837742E-05  2.555615E-04  3.372933E-20  2.167501E-02
        16 0001-01-01 00:32:00.00  8.284124E-06  2.456334E+02  2.456334E+02  5.000000E+11
                       (01,01,50)  5.677819E-05  2.799411E-04  8.061780E-23  2.380342E-02
        17 0001-01-01 00:34:00.00  1.009661E-05  2.456334E+02  2.456334E+02  5.000000E+11
                       (02,01,50)  6.589213E-05  3.044608E-04  6.752107E-20  2.595912E-02
        18 0001-01-01 00:36:00.00  1.215209E-05  2.456334E+02  2.456334E+02  5.000000E+11
                       (02,01,50)  7.571945E-05  3.290652E-04  6.747080E-20  2.813871E-02
        19 0001-01-01 00:38:00.00  1.447917E-05  2.456334E+02  2.456334E+02  5.000000E+11
                       (02,01,50)  8.630517E-05  3.538936E-04  6.716544E-20  3.035545E-02
        20 0001-01-01 00:40:00.00  1.708180E-05  2.456334E+02  2.456334E+02  5.000000E+11
                       (02,01,50)  9.760958E-05  3.787140E-04  3.348373E-20  3.259089E-02
        21 0001-01-01 00:42:00.00  1.997545E-05  2.456334E+02  2.456334E+02  5.000000E+11
                       (02,01,50)  1.096292E-04  4.034934E-04  1.686780E-19  3.484345E-02
        22 0001-01-01 00:44:00.00  2.317573E-05  2.456334E+02  2.456334E+02  5.000000E+11
                       (01,01,50)  1.223642E-04  4.282007E-04  2.608955E-22  3.711177E-02
        23 0001-01-01 00:46:00.00  2.669847E-05  2.456334E+02  2.456334E+02  5.000000E+11
                       (01,01,50)  1.358129E-04  4.528067E-04  2.470940E-23  3.939464E-02
        24 0001-01-01 00:48:00.00  3.055968E-05  2.456334E+02  2.456334E+02  5.000000E+11
                       (02,01,50)  1.499734E-04  4.772843E-04  1.351016E-19  4.169102E-02
        25 0001-01-01 00:50:00.00  3.477561E-05  2.456334E+02  2.456334E+02  5.000000E+11
                       (01,01,50)  1.648434E-04  5.016082E-04  8.577826E-22  4.400001E-02
        26 0001-01-01 00:52:00.00  3.936275E-05  2.456334E+02  2.456334E+02  5.000000E+11
                       (02,01,50)  1.804199E-04  5.257545E-04  1.351147E-19  4.632083E-02
        27 0001-01-01 00:54:00.00  4.433783E-05  2.456334E+02  2.456334E+02  5.000000E+11
                       (01,01,50)  1.967001E-04  5.497005E-04  3.483193E-20  4.865279E-02
        28 0001-01-01 00:56:00.00  4.971784E-05  2.456334E+02  2.456334E+02  5.000000E+11
                       (02,01,50)  2.136806E-04  5.734248E-04  1.684087E-19  5.099533E-02
        29 0001-01-01 00:58:00.00  5.552006E-05  2.456334E+02  2.456334E+02  5.000000E+11
                       (01,01,50)  2.313577E-04  5.969069E-04  2.235712E-23  5.334793E-02
        30 0001-01-01 01:00:00.00  6.176200E-05  2.456334E+02  2.456334E+02  5.000000E+11
                       (02,01,50)  2.497274E-04  6.201271E-04  2.706549E-19  5.571015E-02
        31 0001-01-01 01:02:00.00  6.846147E-05  2.456334E+02  2.456334E+02  5.000000E+11
                       (02,01,50)  2.687856E-04  6.430665E-04  4.078412E-19  5.808161E-02
        32 0001-01-01 01:04:00.00  7.563655E-05  2.456334E+02  2.456335E+02  5.000000E+11
                       (02,01,50)  2.885277E-04  6.657066E-04  6.759044E-20  6.046197E-02
        33 0001-01-01 01:06:00.00  8.330562E-05  2.456334E+02  2.456335E+02  5.000000E+11
                       (01,01,50)  3.089490E-04  6.880298E-04  1.334569E-19  6.285094E-02
        34 0001-01-01 01:08:00.00  9.148731E-05  2.456334E+02  2.456335E+02  5.000000E+11
                       (07,01,50)  3.300445E-04  7.100188E-04  4.078773E-19  6.524825E-02
        35 0001-01-01 01:10:00.00  1.002006E-04  2.456334E+02  2.456335E+02  5.000000E+11
                       (01,01,50)  3.518089E-04  7.316565E-04  1.274439E-21  6.765367E-02
        36 0001-01-01 01:12:00.00  1.094646E-04  2.456334E+02  2.456335E+02  5.000000E+11
                       (02,01,50)  3.742366E-04  7.529266E-04  2.703079E-19  7.006701E-02
        37 0001-01-01 01:14:00.00  1.192988E-04  2.456334E+02  2.456335E+02  5.000000E+11
                       (01,01,50)  3.973217E-04  7.738129E-04  1.739275E-21  7.248807E-02
        38 0001-01-01 01:16:00.00  1.297231E-04  2.456334E+02  2.456335E+02  5.000000E+11
                       (01,01,50)  4.210583E-04  7.942994E-04  2.656209E-21  7.491669E-02
        39 0001-01-01 01:18:00.00  1.407574E-04  2.456334E+02  2.456335E+02  5.000000E+11
                       (02,01,50)  4.454398E-04  8.143705E-04  2.748612E-19  7.735273E-02
        40 0001-01-01 01:20:00.00  1.524221E-04  2.456334E+02  2.456335E+02  5.000000E+11
                       (07,01,50)  4.704598E-04  8.340109E-04  3.431753E-19  7.979603E-02
        41 0001-01-01 01:22:00.00  1.647376E-04  2.456334E+02  2.456335E+02  5.000000E+11
                       (02,01,50)  4.961111E-04  8.532054E-04  5.451777E-19  8.224649E-02
        42 0001-01-01 01:24:00.00  1.777249E-04  2.456334E+02  2.456336E+02  5.000000E+11
                       (03,01,50)  5.223868E-04  8.719391E-04  5.459900E-19  8.470397E-02
        43 0001-01-01 01:26:00.00  1.914050E-04  2.456334E+02  2.456336E+02  5.000000E+11
                       (03,01,50)  5.492792E-04  8.901971E-04  1.018573E-18  8.716836E-02
        44 0001-01-01 01:28:00.00  2.057992E-04  2.456334E+02  2.456336E+02  5.000000E+11
                       (06,01,50)  5.767806E-04  9.079650E-04  1.698685E-18  8.963957E-02
        45 0001-01-01 01:30:00.00  2.209291E-04  2.456334E+02  2.456336E+02  5.000000E+11
                       (07,01,50)  6.048830E-04  9.252283E-04  3.817136E-18  9.211749E-02
        46 0001-01-01 01:32:00.00  2.368164E-04  2.456334E+02  2.456336E+02  5.000000E+11
                       (03,01,50)  6.335780E-04  9.419728E-04  3.750710E-18  9.460201E-02
        47 0001-01-01 01:34:00.00  2.534832E-04  2.456334E+02  2.456336E+02  5.000000E+11
                       (03,01,50)  6.628571E-04  9.581843E-04  4.362061E-18  9.709305E-02
        48 0001-01-01 01:36:00.00  2.709516E-04  2.456334E+02  2.456336E+02  5.000000E+11
                       (09,01,50)  6.927112E-04  9.738491E-04  1.702191E-18  9.959051E-02
        49 0001-01-01 01:38:00.00  2.892442E-04  2.456334E+02  2.456337E+02  5.000000E+11
                       (09,01,50)  7.231313E-04  9.889533E-04  1.629369E-18  1.020943E-01
        50 0001-01-01 01:40:00.00  3.083835E-04  2.456334E+02  2.456337E+02  5.000000E+11
                       (03,01,50)  7.541078E-04  1.003483E-03  1.644342E-17  1.046043E-01
        51 0001-01-01 01:42:00.00  3.283922E-04  2.456334E+02  2.456337E+02  5.000000E+11
                       (03,01,50)  7.856308E-04  1.017426E-03  1.561777E-17  1.071205E-01
        52 0001-01-01 01:44:00.00  3.492934E-04  2.456334E+02  2.456337E+02  5.000000E+11
                       (03,01,50)  8.176904E-04  1.030767E-03  1.037131E-17  1.096427E-01
        53 0001-01-01 01:46:00.00  3.711102E-04  2.456334E+02  2.456337E+02  5.000000E+11
                       (03,01,50)  8.502761E-04  1.043494E-03  1.173068E-17  1.121708E-01
        54 0001-01-01 01:48:00.00  3.938659E-04  2.456334E+02  2.456338E+02  5.000000E+11
                       (03,01,50)  8.833772E-04  1.055595E-03  1.151824E-17  1.147048E-01
        55 0001-01-01 01:50:00.00  4.175839E-04  2.456334E+02  2.456338E+02  5.000000E+11
                       (03,01,50)  9.169826E-04  1.067055E-03  8.937790E-18  1.172445E-01
        56 0001-01-01 01:52:00.00  4.422878E-04  2.456334E+02  2.456338E+02  5.000000E+11
                       (03,01,50)  9.510811E-04  1.077863E-03  1.321158E-17  1.197898E-01
        57 0001-01-01 01:54:00.00  4.680012E-04  2.456334E+02  2.456338E+02  5.000000E+11
                       (04,01,50)  9.856610E-04  1.088005E-03  5.322563E-18  1.223407E-01
        58 0001-01-01 01:56:00.00  4.947479E-04  2.456334E+02  2.456339E+02  5.000000E+11
                       (10,01,50)  1.020710E-03  1.097470E-03  5.525139E-18  1.248969E-01
        59 0001-01-01 01:58:00.00  5.225866E-04  2.456334E+02  2.456339E+02  5.000000E+11
                       (01,01,50)  1.056253E-03  1.106283E-03  3.263943E-18  1.274628E-01
        60 0001-01-01 02:00:00.00  5.515152E-04  2.456334E+02  2.456339E+02  5.000000E+11
                       (03,01,50)  1.092248E-03  1.114401E-03  1.512932E-17  1.300346E-01
      WRT_HIS     - wrote history     fields (Index=1,1) in record = 0000002
        61 0001-01-01 02:02:00.00  5.815602E-04  2.456334E+02  2.456340E+02  5.000000E+11
                       (03,01,50)  1.128685E-03  1.121813E-03  1.391302E-17  1.326125E-01
        62 0001-01-01 02:04:00.00  6.127476E-04  2.456334E+02  2.456340E+02  5.000000E+11
                       (07,01,50)  1.165552E-03  1.128508E-03  1.301878E-17  1.351964E-01
        63 0001-01-01 02:06:00.00  6.451041E-04  2.456334E+02  2.456340E+02  5.000000E+11
                       (02,01,50)  1.202838E-03  1.134477E-03  1.090407E-17  1.377865E-01
        64 0001-01-01 02:08:00.00  6.786566E-04  2.456334E+02  2.456341E+02  5.000000E+11
                       (03,01,50)  1.240530E-03  1.139709E-03  1.089891E-17  1.403827E-01
        65 0001-01-01 02:10:00.00  7.134319E-04  2.456334E+02  2.456341E+02  5.000000E+11
                       (04,01,50)  1.278618E-03  1.144194E-03  1.617505E-17  1.429851E-01
        66 0001-01-01 02:12:00.00  7.494574E-04  2.456334E+02  2.456341E+02  5.000000E+11
                       (04,01,50)  1.317088E-03  1.147921E-03  2.821799E-17  1.455937E-01
        67 0001-01-01 02:14:00.00  7.867601E-04  2.456334E+02  2.456342E+02  5.000000E+11
                       (04,01,50)  1.355927E-03  1.150882E-03  2.373984E-17  1.482085E-01
        68 0001-01-01 02:16:00.00  8.253675E-04  2.456334E+02  2.456342E+02  5.000000E+11
                       (09,01,50)  1.395123E-03  1.153066E-03  1.547729E-17  1.508294E-01
        69 0001-01-01 02:18:00.00  8.653072E-04  2.456334E+02  2.456342E+02  5.000000E+11
                       (03,01,50)  1.434663E-03  1.154464E-03  5.238599E-18  1.534566E-01
        70 0001-01-01 02:20:00.00  9.066069E-04  2.456334E+02  2.456343E+02  5.000000E+11
                       (02,01,50)  1.474532E-03  1.155065E-03  1.269687E-17  1.560898E-01
        71 0001-01-01 02:22:00.00  9.492944E-04  2.456334E+02  2.456343E+02  5.000000E+11
                       (03,01,50)  1.514718E-03  1.154862E-03  2.776755E-17  1.587292E-01
        72 0001-01-01 02:24:00.00  9.933976E-04  2.456334E+02  2.456344E+02  5.000000E+11
                       (02,01,50)  1.555205E-03  1.153843E-03  3.654282E-17  1.613747E-01
        73 0001-01-01 02:26:00.00  1.038945E-03  2.456334E+02  2.456344E+02  5.000000E+11
                       (02,01,50)  1.595980E-03  1.152002E-03  2.996092E-17  1.640261E-01
        74 0001-01-01 02:28:00.00  1.085963E-03  2.456334E+02  2.456345E+02  5.000000E+11
                       (10,01,50)  1.637027E-03  1.149328E-03  2.651419E-17  1.666836E-01
        75 0001-01-01 02:30:00.00  1.134483E-03  2.456334E+02  2.456345E+02  5.000000E+11
                       (05,01,50)  1.678333E-03  1.145813E-03  2.396546E-17  1.693470E-01
        76 0001-01-01 02:32:00.00  1.184530E-03  2.456334E+02  2.456346E+02  5.000000E+11
                       (03,01,50)  1.719881E-03  1.141449E-03  2.621575E-17  1.720162E-01
        77 0001-01-01 02:34:00.00  1.236135E-03  2.456334E+02  2.456346E+02  5.000000E+11
                       (08,01,50)  1.761657E-03  1.136228E-03  3.498845E-17  1.746912E-01
        78 0001-01-01 02:36:00.00  1.289326E-03  2.456334E+02  2.456347E+02  5.000000E+11
                       (04,01,50)  1.803644E-03  1.130141E-03  3.031775E-17  1.773718E-01
        79 0001-01-01 02:38:00.00  1.344131E-03  2.456334E+02  2.456347E+02  5.000000E+11
                       (04,01,50)  1.845827E-03  1.123181E-03  3.277679E-17  1.800581E-01
        80 0001-01-01 02:40:00.00  1.400579E-03  2.456334E+02  2.456348E+02  5.000000E+11
                       (05,01,50)  1.888189E-03  1.115341E-03  2.365568E-17  1.827499E-01
        81 0001-01-01 02:42:00.00  1.458698E-03  2.456334E+02  2.456348E+02  5.000000E+11
                       (05,01,50)  1.930713E-03  1.106613E-03  2.832313E-17  1.854470E-01
        82 0001-01-01 02:44:00.00  1.518519E-03  2.456334E+02  2.456349E+02  5.000000E+11
                       (05,01,50)  1.973384E-03  1.096990E-03  1.973732E-17  1.881494E-01
        83 0001-01-01 02:46:00.00  1.580069E-03  2.456334E+02  2.456350E+02  5.000000E+11
                       (08,01,50)  2.016183E-03  1.086466E-03  2.769144E-17  1.908570E-01
        84 0001-01-01 02:48:00.00  1.643378E-03  2.456334E+02  2.456350E+02  5.000000E+11
                       (08,01,50)  2.059093E-03  1.075034E-03  5.601087E-17  1.935696E-01
        85 0001-01-01 02:50:00.00  1.708474E-03  2.456334E+02  2.456351E+02  5.000000E+11
                       (03,01,50)  2.102097E-03  1.062689E-03  5.961520E-17  1.962870E-01
        86 0001-01-01 02:52:00.00  1.775387E-03  2.456334E+02  2.456352E+02  5.000000E+11
                       (03,01,50)  2.145177E-03  1.049423E-03  4.704058E-17  1.990092E-01
        87 0001-01-01 02:54:00.00  1.844146E-03  2.456334E+02  2.456352E+02  5.000000E+11
                       (05,01,50)  2.188314E-03  1.035233E-03  1.723351E-17  2.017360E-01
        88 0001-01-01 02:56:00.00  1.914780E-03  2.456334E+02  2.456353E+02  5.000000E+11
                       (07,01,50)  2.231491E-03  1.020112E-03  1.518821E-17  2.044671E-01
        89 0001-01-01 02:58:00.00  1.987318E-03  2.456334E+02  2.456354E+02  5.000000E+11
                       (08,01,50)  2.274687E-03  1.004055E-03  2.415902E-17  2.072024E-01
        90 0001-01-01 03:00:00.00  2.061615E-03  2.456334E+02  2.456355E+02  5.000000E+11
                       (08,01,50)  2.317883E-03  9.870576E-04  5.275347E-17  2.099416E-01
        91 0001-01-01 03:02:00.00  2.137711E-03  2.456334E+02  2.456355E+02  5.000000E+11
                       (09,01,50)  2.361002E-03  9.690913E-04  6.966060E-17  2.126791E-01
        92 0001-01-01 03:04:00.00  2.215655E-03  2.456334E+02  2.456356E+02  5.000000E+11
                       (09,01,50)  2.404038E-03  9.501617E-04  6.493286E-17  2.154163E-01
        93 0001-01-01 03:06:00.00  2.295491E-03  2.456334E+02  2.456357E+02  5.000000E+11
                       (03,01,50)  2.446985E-03  9.302720E-04  2.638668E-17  2.181542E-01
        94 0001-01-01 03:08:00.00  2.377264E-03  2.456334E+02  2.456358E+02  5.000000E+11
                       (09,01,50)  2.489836E-03  9.094247E-04  3.410056E-17  2.208936E-01
        95 0001-01-01 03:10:00.00  2.461020E-03  2.456334E+02  2.456359E+02  5.000000E+11
                       (05,01,50)  2.532580E-03  8.876215E-04  4.751435E-17  2.236353E-01
        96 0001-01-01 03:12:00.00  2.546798E-03  2.456334E+02  2.456359E+02  5.000000E+11
                       (10,01,50)  2.575207E-03  8.648634E-04  8.702941E-17  2.263797E-01
        97 0001-01-01 03:14:00.00  2.634640E-03  2.456334E+02  2.456360E+02  5.000000E+11
                       (09,01,50)  2.617704E-03  8.411509E-04  7.747917E-17  2.291274E-01
        98 0001-01-01 03:16:00.00  2.724585E-03  2.456334E+02  2.456361E+02  5.000000E+11
                       (10,01,50)  2.660056E-03  8.164843E-04  5.224835E-17  2.318786E-01
        99 0001-01-01 03:18:00.00  2.816671E-03  2.456334E+02  2.456362E+02  5.000000E+11
                       (08,01,50)  2.702249E-03  7.908636E-04  2.084039E-17  2.346335E-01
       100 0001-01-01 03:20:00.00  2.910934E-03  2.456334E+02  2.456363E+02  5.000000E+11
                       (10,01,50)  2.744267E-03  7.642887E-04  5.168060E-17  2.373923E-01
       101 0001-01-01 03:22:00.00  3.007411E-03  2.456334E+02  2.456364E+02  5.000000E+11
                       (10,01,50)  2.786093E-03  7.367595E-04  7.731296E-17  2.401552E-01
       102 0001-01-01 03:24:00.00  3.106135E-03  2.456334E+02  2.456365E+02  5.000000E+11
                       (10,01,50)  2.827710E-03  7.082761E-04  8.173838E-17  2.429220E-01
       103 0001-01-01 03:26:00.00  3.207143E-03  2.456334E+02  2.456366E+02  5.000000E+11
                       (10,01,50)  2.869100E-03  6.788386E-04  7.766157E-17  2.456929E-01
       104 0001-01-01 03:28:00.00  3.310468E-03  2.456334E+02  2.456367E+02  5.000000E+11
                       (04,01,50)  2.910244E-03  6.484474E-04  6.463272E-17  2.484676E-01
       105 0001-01-01 03:30:00.00  3.416143E-03  2.456334E+02  2.456368E+02  5.000000E+11
                       (04,01,50)  2.951124E-03  6.171032E-04  3.925849E-17  2.512462E-01
       106 0001-01-01 03:32:00.00  3.524200E-03  2.456334E+02  2.456369E+02  5.000000E+11
                       (10,01,50)  2.991720E-03  5.848067E-04  5.647383E-17  2.540285E-01
       107 0001-01-01 03:34:00.00  3.634674E-03  2.456334E+02  2.456371E+02  5.000000E+11
                       (10,01,50)  3.032013E-03  5.515594E-04  7.763728E-17  2.568143E-01
       108 0001-01-01 03:36:00.00  3.747595E-03  2.456334E+02  2.456372E+02  5.000000E+11
                       (10,01,50)  3.071982E-03  5.173627E-04  9.101334E-17  2.596036E-01
       109 0001-01-01 03:38:00.00  3.862995E-03  2.456334E+02  2.456373E+02  5.000000E+11
                       (10,01,50)  3.111607E-03  4.822188E-04  8.271501E-17  2.623960E-01
       110 0001-01-01 03:40:00.00  3.980906E-03  2.456334E+02  2.456374E+02  5.000000E+11
                       (03,01,50)  3.150869E-03  4.461298E-04  5.646751E-17  2.651913E-01
       111 0001-01-01 03:42:00.00  4.101343E-03  2.456334E+02  2.456375E+02  5.000000E+11
                       (03,01,50)  3.189746E-03  4.090987E-04  4.794314E-17  2.679895E-01
       112 0001-01-01 03:44:00.00  4.223630E-03  2.456334E+02  2.456377E+02  5.000000E+11
                       (05,01,50)  3.228214E-03  3.711281E-04  3.960777E-17  2.707898E-01
       113 0001-01-01 03:46:00.00  4.347967E-03  2.456334E+02  2.456378E+02  5.000000E+11
                       (05,01,50)  3.266123E-03  3.322084E-04  6.140514E-17  2.735812E-01
       114 0001-01-01 03:48:00.00  4.474450E-03  2.456334E+02  2.456379E+02  5.000000E+11
                       (05,01,50)  3.303484E-03  2.923534E-04  7.417583E-17  2.763663E-01
       115 0001-01-01 03:50:00.00  4.603183E-03  2.456335E+02  2.456381E+02  5.000000E+11
                       (10,01,50)  3.340303E-03  2.515726E-04  8.742603E-17  2.791470E-01
       116 0001-01-01 03:52:00.00  4.734260E-03  2.456335E+02  2.456382E+02  5.000000E+11
                       (10,01,50)  3.376585E-03  2.098755E-04  8.653048E-17  2.819251E-01
       117 0001-01-01 03:54:00.00  4.867768E-03  2.456335E+02  2.456383E+02  5.000000E+11
                       (03,01,50)  3.412327E-03  1.672703E-04  7.366688E-17  2.847020E-01
       118 0001-01-01 03:56:00.00  5.003785E-03  2.456335E+02  2.456385E+02  5.000000E+11
                       (03,01,50)  3.447525E-03  1.237647E-04  6.498550E-17  2.874788E-01
       119 0001-01-01 03:58:00.00  5.142376E-03  2.456335E+02  2.456386E+02  5.000000E+11
                       (06,01,50)  3.482171E-03  7.936591E-05  4.306067E-17  2.902562E-01
       120 0001-01-01 04:00:00.00  5.283602E-03  2.456335E+02  2.456388E+02  5.000000E+11
                       (06,01,50)  3.516254E-03  3.408092E-05  6.869465E-17  2.930349E-01
      WRT_HIS     - wrote history     fields (Index=1,1) in record = 0000003
       121 0001-01-01 04:02:00.00  5.427517E-03  2.456335E+02  2.456389E+02  5.000000E+11
                       (06,01,50)  3.549763E-03  1.208328E-05  7.301738E-17  2.958153E-01
       122 0001-01-01 04:04:00.00  5.574170E-03  2.456335E+02  2.456391E+02  5.000000E+11
                       (10,01,50)  3.582682E-03  5.911960E-05  7.839359E-17  2.985974E-01
       123 0001-01-01 04:06:00.00  5.723605E-03  2.456335E+02  2.456392E+02  5.000000E+11
                       (03,01,50)  3.614996E-03  1.070208E-04  5.623408E-17  3.013816E-01
       124 0001-01-01 04:08:00.00  5.875865E-03  2.456335E+02  2.456394E+02  5.000000E+11
                       (02,01,50)  3.646688E-03  1.557792E-04  8.676982E-17  3.041678E-01
       125 0001-01-01 04:10:00.00  6.030941E-03  2.456335E+02  2.456395E+02  5.000000E+11
                       (02,01,50)  3.677740E-03  2.053870E-04  7.815422E-17  3.069559E-01
       126 0001-01-01 04:12:00.00  6.188098E-03  2.456335E+02  2.456397E+02  5.000000E+11
                       (02,01,50)  3.707964E-03  2.558246E-04  8.678388E-17  3.097315E-01
       127 0001-01-01 04:14:00.00  6.347043E-03  2.456335E+02  2.456399E+02  5.000000E+11
                       (04,01,50)  3.737278E-03  3.070696E-04  8.705276E-17  3.124893E-01
       128 0001-01-01 04:16:00.00  6.507829E-03  2.456335E+02  2.456400E+02  5.000000E+11
                       (03,01,50)  3.765675E-03  3.591049E-04  1.131867E-16  3.152299E-01
       129 0001-01-01 04:18:00.00  6.670579E-03  2.456335E+02  2.456402E+02  5.000000E+11
                       (03,01,50)  3.793157E-03  4.119147E-04  1.390265E-16  3.179548E-01
       130 0001-01-01 04:20:00.00  6.838179E-03  2.456335E+02  2.456404E+02  5.000000E+11
                       (03,01,50)  3.820543E-03  4.655805E-04  1.477194E-16  3.207339E-01
       131 0001-01-01 04:22:00.00  7.008073E-03  2.456335E+02  2.456406E+02  5.000000E+11
                       (03,01,50)  3.847063E-03  5.200283E-04  1.130019E-16  3.235043E-01
       132 0001-01-01 04:24:00.00  7.180388E-03  2.456336E+02  2.456407E+02  5.000000E+11
                       (05,01,50)  3.872727E-03  5.752332E-04  1.030661E-16  3.262679E-01
       133 0001-01-01 04:26:00.00  7.355256E-03  2.456336E+02  2.456409E+02  5.000000E+11
                       (04,01,50)  3.897539E-03  6.311884E-04  1.267143E-16  3.290265E-01
       134 0001-01-01 04:28:00.00  7.532795E-03  2.456336E+02  2.456411E+02  5.000000E+11
                       (04,01,50)  3.921502E-03  6.878833E-04  1.615611E-16  3.317814E-01
       135 0001-01-01 04:30:00.00  7.713112E-03  2.456336E+02  2.456413E+02  5.000000E+11
                       (04,01,50)  3.944612E-03  7.453072E-04  1.705495E-16  3.345338E-01
       136 0001-01-01 04:32:00.00  7.896301E-03  2.456336E+02  2.456415E+02  5.000000E+11
                       (03,01,50)  3.966867E-03  8.034494E-04  1.310017E-16  3.372846E-01
       137 0001-01-01 04:34:00.00  8.082442E-03  2.456336E+02  2.456417E+02  5.000000E+11
                       (03,01,50)  3.988259E-03  8.622986E-04  1.051482E-16  3.400344E-01
       138 0001-01-01 04:36:00.00  8.271604E-03  2.456336E+02  2.456419E+02  5.000000E+11
                       (05,01,50)  4.008780E-03  9.218433E-04  1.493526E-16  3.427838E-01
       139 0001-01-01 04:38:00.00  8.463820E-03  2.456336E+02  2.456421E+02  5.000000E+11
                       (05,01,50)  4.028417E-03  9.820716E-04  2.091559E-16  3.455331E-01
       140 0001-01-01 04:40:00.00  8.657959E-03  2.456336E+02  2.456423E+02  5.000000E+11
                       (05,01,50)  4.046982E-03  1.042926E-03  2.267792E-16  3.482671E-01
       141 0001-01-01 04:42:00.00  8.853228E-03  2.456336E+02  2.456425E+02  5.000000E+11
                       (04,01,50)  4.064333E-03  1.104349E-03  2.029357E-16  3.509747E-01
       142 0001-01-01 04:44:00.00  9.049814E-03  2.456337E+02  2.456427E+02  5.000000E+11
                       (04,01,50)  4.080486E-03  1.166322E-03  1.598600E-16  3.536582E-01
       143 0001-01-01 04:46:00.00  9.248066E-03  2.456337E+02  2.456429E+02  5.000000E+11
                       (09,01,50)  4.095473E-03  1.228834E-03  1.074951E-16  3.563212E-01
       144 0001-01-01 04:48:00.00  9.448257E-03  2.456337E+02  2.456431E+02  5.000000E+11
                       (05,01,50)  4.109313E-03  1.291873E-03  1.716645E-16  3.589664E-01
       145 0001-01-01 04:50:00.00  9.656539E-03  2.456337E+02  2.456434E+02  5.000000E+11
                       (05,01,50)  4.123130E-03  1.355784E-03  2.845811E-16  3.616931E-01
       146 0001-01-01 04:52:00.00  9.867253E-03  2.456337E+02  2.456436E+02  5.000000E+11
                       (05,01,50)  4.135869E-03  1.420254E-03  2.935163E-16  3.644110E-01
       147 0001-01-01 04:54:00.00  1.008051E-02  2.456337E+02  2.456438E+02  5.000000E+11
                       (05,01,50)  4.147537E-03  1.485253E-03  2.856342E-16  3.671213E-01
       148 0001-01-01 04:56:00.00  1.029644E-02  2.456337E+02  2.456440E+02  5.000000E+11
                       (05,01,50)  4.158137E-03  1.550771E-03  1.817189E-16  3.698253E-01
       149 0001-01-01 04:58:00.00  1.051516E-02  2.456337E+02  2.456443E+02  5.000000E+11
                       (10,01,50)  4.167668E-03  1.616797E-03  6.049933E-17  3.725241E-01
       150 0001-01-01 05:00:00.00  1.073680E-02  2.456338E+02  2.456445E+02  5.000000E+11
                       (06,01,50)  4.176131E-03  1.683317E-03  1.210352E-16  3.752187E-01
       151 0001-01-01 05:02:00.00  1.096147E-02  2.456338E+02  2.456447E+02  5.000000E+11
                       (05,01,50)  4.183525E-03  1.750318E-03  2.170002E-16  3.779100E-01
       152 0001-01-01 05:04:00.00  1.118927E-02  2.456338E+02  2.456450E+02  5.000000E+11
                       (05,01,50)  4.189845E-03  1.817786E-03  2.603516E-16  3.805985E-01
       153 0001-01-01 05:06:00.00  1.142020E-02  2.456338E+02  2.456452E+02  5.000000E+11
                       (05,01,50)  4.195086E-03  1.885706E-03  2.609565E-16  3.832847E-01
       154 0001-01-01 05:08:00.00  1.165203E-02  2.456338E+02  2.456455E+02  5.000000E+11
                       (05,01,50)  4.198983E-03  1.953945E-03  2.082683E-16  3.859454E-01
       155 0001-01-01 05:10:00.00  1.188399E-02  2.456338E+02  2.456457E+02  5.000000E+11
                       (05,01,50)  4.201439E-03  2.022427E-03  1.396423E-16  3.885720E-01
       156 0001-01-01 05:12:00.00  1.211660E-02  2.456339E+02  2.456460E+02  5.000000E+11
                       (07,01,50)  4.202503E-03  2.091147E-03  1.576737E-16  3.911692E-01
       157 0001-01-01 05:14:00.00  1.235052E-02  2.456339E+02  2.456462E+02  5.000000E+11
                       (02,01,50)  4.202230E-03  2.160108E-03  2.084086E-16  3.937427E-01
       158 0001-01-01 05:16:00.00  1.258624E-02  2.456339E+02  2.456465E+02  5.000000E+11
                       (04,01,50)  4.200656E-03  2.229305E-03  2.227678E-16  3.962963E-01
       159 0001-01-01 05:18:00.00  1.282410E-02  2.456339E+02  2.456467E+02  5.000000E+11
                       (05,01,50)  4.197802E-03  2.298727E-03  2.238526E-16  3.988324E-01
       160 0001-01-01 05:20:00.00  1.307404E-02  2.456339E+02  2.456470E+02  5.000000E+11
                       (05,01,50)  4.194955E-03  2.369074E-03  1.976071E-16  4.014743E-01
       161 0001-01-01 05:22:00.00  1.332660E-02  2.456340E+02  2.456473E+02  5.000000E+11
                       (10,01,50)  4.190887E-03  2.439703E-03  1.825367E-16  4.041081E-01
       162 0001-01-01 05:24:00.00  1.358188E-02  2.456340E+02  2.456476E+02  5.000000E+11
                       (10,01,50)  4.185614E-03  2.510577E-03  1.899166E-16  4.067346E-01
       163 0001-01-01 05:26:00.00  1.383998E-02  2.456340E+02  2.456478E+02  5.000000E+11
                       (02,01,50)  4.179133E-03  2.581687E-03  2.156508E-16  4.093547E-01
       164 0001-01-01 05:28:00.00  1.410104E-02  2.456340E+02  2.456481E+02  5.000000E+11
                       (02,01,50)  4.171448E-03  2.653020E-03  2.582249E-16  4.119693E-01
       165 0001-01-01 05:30:00.00  1.436516E-02  2.456340E+02  2.456484E+02  5.000000E+11
                       (04,01,50)  4.162558E-03  2.724559E-03  2.787553E-16  4.145791E-01
       166 0001-01-01 05:32:00.00  1.463246E-02  2.456340E+02  2.456487E+02  5.000000E+11
                       (04,01,50)  4.152465E-03  2.796291E-03  2.959630E-16  4.171847E-01
       167 0001-01-01 05:34:00.00  1.490101E-02  2.456341E+02  2.456490E+02  5.000000E+11
                       (10,01,50)  4.141016E-03  2.868093E-03  2.332791E-16  4.197715E-01
       168 0001-01-01 05:36:00.00  1.516849E-02  2.456341E+02  2.456493E+02  5.000000E+11
                       (10,01,50)  4.128014E-03  2.939799E-03  2.421403E-16  4.223193E-01
       169 0001-01-01 05:38:00.00  1.543530E-02  2.456341E+02  2.456496E+02  5.000000E+11
                       (10,01,50)  4.113486E-03  3.011392E-03  2.771228E-16  4.248304E-01
       170 0001-01-01 05:40:00.00  1.570254E-02  2.456341E+02  2.456498E+02  5.000000E+11
                       (10,01,50)  4.097509E-03  3.082894E-03  2.426358E-16  4.273125E-01
       171 0001-01-01 05:42:00.00  1.597109E-02  2.456342E+02  2.456501E+02  5.000000E+11
                       (05,01,50)  4.080143E-03  3.154321E-03  2.341972E-16  4.297715E-01
       172 0001-01-01 05:44:00.00  1.624155E-02  2.456342E+02  2.456504E+02  5.000000E+11
                       (04,01,50)  4.061423E-03  3.225674E-03  2.686378E-16  4.322111E-01
       173 0001-01-01 05:46:00.00  1.651431E-02  2.456342E+02  2.456507E+02  5.000000E+11
                       (04,01,50)  4.041372E-03  3.296944E-03  2.686654E-16  4.346337E-01
       174 0001-01-01 05:48:00.00  1.680333E-02  2.456342E+02  2.456511E+02  5.000000E+11
                       (04,01,50)  4.021264E-03  3.369167E-03  1.996355E-16  4.371772E-01
       175 0001-01-01 05:50:00.00  1.709506E-02  2.456343E+02  2.456514E+02  5.000000E+11
                       (10,01,50)  3.999871E-03  3.441378E-03  2.512984E-16  4.397131E-01
       176 0001-01-01 05:52:00.00  1.738956E-02  2.456343E+02  2.456517E+02  5.000000E+11
                       (10,01,50)  3.977213E-03  3.513539E-03  2.943689E-16  4.422416E-01
       177 0001-01-01 05:54:00.00  1.768693E-02  2.456343E+02  2.456520E+02  5.000000E+11
                       (10,01,50)  3.953289E-03  3.585640E-03  2.519310E-16  4.447636E-01
       178 0001-01-01 05:56:00.00  1.798728E-02  2.456343E+02  2.456523E+02  5.000000E+11
                       (05,01,50)  3.928103E-03  3.657665E-03  2.441509E-16  4.472796E-01
       179 0001-01-01 05:58:00.00  1.829070E-02  2.456344E+02  2.456527E+02  5.000000E+11
                       (04,01,50)  3.901658E-03  3.729597E-03  1.914295E-16  4.497903E-01
       180 0001-01-01 06:00:00.00  1.859508E-02  2.456344E+02  2.456530E+02  5.000000E+11
                       (04,01,50)  3.873842E-03  3.801306E-03  1.486602E-16  4.522826E-01
      WRT_HIS     - wrote history     fields (Index=1,1) in record = 0000004
       181 0001-01-01 06:02:00.00  1.889716E-02  2.456344E+02  2.456533E+02  5.000000E+11
                       (06,01,50)  3.844464E-03  3.872569E-03  2.349040E-16  4.547336E-01
       182 0001-01-01 06:04:00.00  1.919712E-02  2.456345E+02  2.456537E+02  5.000000E+11
                       (06,01,50)  3.813537E-03  3.943353E-03  3.038863E-16  4.571431E-01
       183 0001-01-01 06:06:00.00  1.949648E-02  2.456345E+02  2.456540E+02  5.000000E+11
                       (06,01,50)  3.781142E-03  4.013698E-03  2.868131E-16  4.595197E-01
       184 0001-01-01 06:08:00.00  1.979658E-02  2.456345E+02  2.456543E+02  5.000000E+11
                       (06,01,50)  3.747351E-03  4.083641E-03  2.263793E-16  4.618709E-01
       185 0001-01-01 06:10:00.00  2.009832E-02  2.456346E+02  2.456547E+02  5.000000E+11
                       (05,01,50)  3.712208E-03  4.153200E-03  1.561417E-16  4.642015E-01
       186 0001-01-01 06:12:00.00  2.040226E-02  2.456346E+02  2.456550E+02  5.000000E+11
                       (05,01,50)  3.675745E-03  4.222374E-03  9.584133E-17  4.665145E-01
       187 0001-01-01 06:14:00.00  2.070880E-02  2.456346E+02  2.456553E+02  5.000000E+11
                       (07,01,50)  3.637981E-03  4.291157E-03  2.203113E-16  4.688116E-01
       188 0001-01-01 06:16:00.00  2.101822E-02  2.456347E+02  2.456557E+02  5.000000E+11
                       (07,01,50)  3.598933E-03  4.359537E-03  2.964781E-16  4.710942E-01
       189 0001-01-01 06:18:00.00  2.134814E-02  2.456347E+02  2.456560E+02  5.000000E+11
                       (06,01,50)  3.559750E-03  4.428903E-03  3.029953E-16  4.735138E-01
       190 0001-01-01 06:20:00.00  2.168097E-02  2.456347E+02  2.456564E+02  5.000000E+11
                       (06,01,50)  3.519299E-03  4.497936E-03  2.598050E-16  4.759267E-01
       191 0001-01-01 06:22:00.00  2.201672E-02  2.456348E+02  2.456568E+02  5.000000E+11
                       (03,01,50)  3.477609E-03  4.566599E-03  2.509510E-16  4.783333E-01
       192 0001-01-01 06:24:00.00  2.235337E-02  2.456348E+02  2.456571E+02  5.000000E+11
                       (03,01,50)  3.434603E-03  4.634779E-03  1.991001E-16  4.807234E-01
       193 0001-01-01 06:26:00.00  2.268726E-02  2.456348E+02  2.456575E+02  5.000000E+11
                       (01,01,50)  3.390138E-03  4.702240E-03  1.361595E-16  4.830753E-01
       194 0001-01-01 06:28:00.00  2.301777E-02  2.456349E+02  2.456579E+02  5.000000E+11
                       (07,01,50)  3.344199E-03  4.768906E-03  2.578137E-16  4.853845E-01
       195 0001-01-01 06:30:00.00  2.334636E-02  2.456349E+02  2.456582E+02  5.000000E+11
                       (07,01,50)  3.296850E-03  4.834810E-03  3.346488E-16  4.876574E-01
       196 0001-01-01 06:32:00.00  2.367477E-02  2.456349E+02  2.456586E+02  5.000000E+11
                       (07,01,50)  3.248161E-03  4.900007E-03  3.867689E-16  4.899023E-01
       197 0001-01-01 06:34:00.00  2.400426E-02  2.456350E+02  2.456590E+02  5.000000E+11
                       (07,01,50)  3.198183E-03  4.964530E-03  2.998165E-16  4.921250E-01
       198 0001-01-01 06:36:00.00  2.433564E-02  2.456350E+02  2.456594E+02  5.000000E+11
                       (01,01,50)  3.146954E-03  5.028393E-03  2.003739E-16  4.943294E-01
       199 0001-01-01 06:38:00.00  2.466942E-02  2.456351E+02  2.456597E+02  5.000000E+11
                       (01,01,50)  3.094499E-03  5.091597E-03  2.170528E-16  4.965177E-01
       200 0001-01-01 06:40:00.00  2.500596E-02  2.456351E+02  2.456601E+02  5.000000E+11
                       (01,01,50)  3.040838E-03  5.154135E-03  2.087943E-16  4.986914E-01
       201 0001-01-01 06:42:00.00  2.534551E-02  2.456352E+02  2.456605E+02  5.000000E+11
                       (07,01,50)  2.985987E-03  5.215997E-03  2.108972E-16  5.008517E-01
       202 0001-01-01 06:44:00.00  2.570919E-02  2.456352E+02  2.456609E+02  5.000000E+11
                       (07,01,50)  2.930851E-03  5.278756E-03  2.627375E-16  5.031508E-01
       203 0001-01-01 06:46:00.00  2.607558E-02  2.456352E+02  2.456613E+02  5.000000E+11
                       (07,01,50)  2.874526E-03  5.340903E-03  2.457916E-16  5.054436E-01
       204 0001-01-01 06:48:00.00  2.644231E-02  2.456353E+02  2.456617E+02  5.000000E+11
                       (03,01,50)  2.816986E-03  5.402288E-03  1.981583E-16  5.077191E-01
       205 0001-01-01 06:50:00.00  2.680631E-02  2.456353E+02  2.456621E+02  5.000000E+11
                       (03,01,50)  2.758153E-03  5.462727E-03  1.555080E-16  5.099618E-01
       206 0001-01-01 06:52:00.00  2.716624E-02  2.456353E+02  2.456625E+02  5.000000E+11
                       (05,01,50)  2.698008E-03  5.522116E-03  1.988986E-16  5.121646E-01
       207 0001-01-01 06:54:00.00  2.752296E-02  2.456354E+02  2.456629E+02  5.000000E+11
                       (05,01,50)  2.636589E-03  5.580455E-03  1.822737E-16  5.143300E-01
       208 0001-01-01 06:56:00.00  2.787832E-02  2.456354E+02  2.456633E+02  5.000000E+11
                       (05,01,50)  2.573954E-03  5.637799E-03  1.649636E-16  5.164651E-01
       209 0001-01-01 06:58:00.00  2.823393E-02  2.456355E+02  2.456637E+02  5.000000E+11
                       (10,01,50)  2.510154E-03  5.694193E-03  1.734391E-16  5.185765E-01
       210 0001-01-01 07:00:00.00  2.859088E-02  2.456355E+02  2.456641E+02  5.000000E+11
                       (10,01,50)  2.445225E-03  5.749666E-03  1.815430E-16  5.206685E-01
       211 0001-01-01 07:02:00.00  2.894987E-02  2.456356E+02  2.456645E+02  5.000000E+11
                       (10,01,50)  2.379198E-03  5.804226E-03  1.381423E-16  5.227440E-01
       212 0001-01-01 07:04:00.00  2.931138E-02  2.456356E+02  2.456649E+02  5.000000E+11
                       (05,01,50)  2.312095E-03  5.857875E-03  1.938436E-16  5.248047E-01
       213 0001-01-01 07:06:00.00  2.967573E-02  2.456357E+02  2.456654E+02  5.000000E+11
                       (05,01,50)  2.243936E-03  5.910605E-03  2.505706E-16  5.268519E-01
       214 0001-01-01 07:08:00.00  3.004315E-02  2.456357E+02  2.456658E+02  5.000000E+11
                       (05,01,50)  2.174740E-03  5.962409E-03  2.545658E-16  5.288865E-01
       215 0001-01-01 07:10:00.00  3.041495E-02  2.456358E+02  2.456662E+02  5.000000E+11
                       (05,01,50)  2.104575E-03  6.013418E-03  1.858453E-16  5.309218E-01
       216 0001-01-01 07:12:00.00  3.079232E-02  2.456358E+02  2.456666E+02  5.000000E+11
                       (10,01,50)  2.033512E-03  6.063810E-03  1.951584E-16  5.329749E-01
       217 0001-01-01 07:14:00.00  3.117670E-02  2.456359E+02  2.456671E+02  5.000000E+11
                       (02,01,50)  1.961623E-03  6.113784E-03  2.245272E-16  5.350644E-01
       218 0001-01-01 07:16:00.00  3.155723E-02  2.456359E+02  2.456675E+02  5.000000E+11
                       (10,01,50)  1.888640E-03  6.162500E-03  2.119088E-16  5.371179E-01
       219 0001-01-01 07:18:00.00  3.193572E-02  2.456360E+02  2.456679E+02  5.000000E+11
                       (05,01,50)  1.814622E-03  6.210006E-03  2.331781E-16  5.391417E-01
       220 0001-01-01 07:20:00.00  3.231384E-02  2.456360E+02  2.456684E+02  5.000000E+11
                       (06,01,50)  1.739608E-03  6.256352E-03  2.688782E-16  5.411419E-01
       221 0001-01-01 07:22:00.00  3.269281E-02  2.456361E+02  2.456688E+02  5.000000E+11
                       (06,01,50)  1.663632E-03  6.301570E-03  2.426980E-16  5.431227E-01
       222 0001-01-01 07:24:00.00  3.307341E-02  2.456362E+02  2.456692E+02  5.000000E+11
                       (06,01,50)  1.586720E-03  6.345673E-03  1.689616E-16  5.450869E-01
       223 0001-01-01 07:26:00.00  3.345614E-02  2.456362E+02  2.456697E+02  5.000000E+11
                       (02,01,50)  1.508898E-03  6.388666E-03  1.472173E-16  5.470363E-01
       224 0001-01-01 07:28:00.00  3.384136E-02  2.456363E+02  2.456701E+02  5.000000E+11
                       (02,01,50)  1.430186E-03  6.430546E-03  1.952663E-16  5.489722E-01
       225 0001-01-01 07:30:00.00  3.422932E-02  2.456363E+02  2.456706E+02  5.000000E+11
                       (04,01,50)  1.350605E-03  6.471309E-03  2.162085E-16  5.508956E-01
       226 0001-01-01 07:32:00.00  3.462069E-02  2.456364E+02  2.456710E+02  5.000000E+11
                       (02,01,50)  1.270184E-03  6.510997E-03  2.038182E-16  5.528113E-01
       227 0001-01-01 07:34:00.00  3.501803E-02  2.456364E+02  2.456715E+02  5.000000E+11
                       (06,01,50)  1.188991E-03  6.549883E-03  2.376797E-16  5.547438E-01
       228 0001-01-01 07:36:00.00  3.541976E-02  2.456365E+02  2.456719E+02  5.000000E+11
                       (06,01,50)  1.107010E-03  6.587853E-03  2.118287E-16  5.566847E-01
       229 0001-01-01 07:38:00.00  3.582445E-02  2.456366E+02  2.456724E+02  5.000000E+11
                       (06,01,50)  1.024234E-03  6.624766E-03  1.637136E-16  5.586229E-01
       230 0001-01-01 07:40:00.00  3.623162E-02  2.456366E+02  2.456728E+02  5.000000E+11
                       (05,01,50)  9.406697E-04  6.660559E-03  1.044189E-16  5.605547E-01
       231 0001-01-01 07:42:00.00  3.664107E-02  2.456367E+02  2.456733E+02  5.000000E+11
                       (04,01,50)  8.563308E-04  6.695198E-03  1.991602E-16  5.624783E-01
       232 0001-01-01 07:44:00.00  3.705006E-02  2.456367E+02  2.456738E+02  5.000000E+11
                       (04,01,50)  7.712327E-04  6.728653E-03  2.135530E-16  5.643923E-01
       233 0001-01-01 07:46:00.00  3.745415E-02  2.456368E+02  2.456742E+02  5.000000E+11
                       (04,01,50)  6.853585E-04  6.760575E-03  2.288891E-16  5.662688E-01
       234 0001-01-01 07:48:00.00  3.785665E-02  2.456368E+02  2.456747E+02  5.000000E+11
                       (04,01,50)  5.987559E-04  6.791084E-03  1.972697E-16  5.681190E-01
       235 0001-01-01 07:50:00.00  3.825962E-02  2.456369E+02  2.456752E+02  5.000000E+11
                       (08,01,50)  5.114546E-04  6.820249E-03  2.417113E-16  5.699499E-01
       236 0001-01-01 07:52:00.00  3.866421E-02  2.456370E+02  2.456756E+02  5.000000E+11
                       (08,01,50)  4.234808E-04  6.848105E-03  2.084810E-16  5.717655E-01
       237 0001-01-01 07:54:00.00  3.907104E-02  2.456370E+02  2.456761E+02  5.000000E+11
                       (08,01,50)  3.348576E-04  6.874665E-03  2.122668E-16  5.735679E-01
       238 0001-01-01 07:56:00.00  3.948049E-02  2.456371E+02  2.456766E+02  5.000000E+11
                       (05,01,50)  2.456065E-04  6.899934E-03  2.484045E-16  5.753586E-01
       239 0001-01-01 07:58:00.00  3.989530E-02  2.456372E+02  2.456771E+02  5.000000E+11
                       (05,01,50)  1.557542E-04  6.924143E-03  2.762167E-16  5.771578E-01
       240 0001-01-01 08:00:00.00  4.031603E-02  2.456372E+02  2.456775E+02  5.000000E+11
                       (05,01,50)  6.531060E-05  6.947382E-03  2.635459E-16  5.789741E-01
      WRT_HIS     - wrote history     fields (Index=1,1) in record = 0000005
       241 0001-01-01 08:02:00.00  4.074021E-02  2.456373E+02  2.456780E+02  5.000000E+11
                       (05,01,50)  2.571707E-05  6.969462E-03  1.903527E-16  5.807924E-01
       242 0001-01-01 08:04:00.00  4.116691E-02  2.456373E+02  2.456785E+02  5.000000E+11
                       (02,01,50)  1.173105E-04  6.990295E-03  1.373386E-16  5.826066E-01
       243 0001-01-01 08:06:00.00  4.159581E-02  2.456374E+02  2.456790E+02  5.000000E+11
                       (09,01,50)  2.094512E-04  7.009842E-03  1.217885E-16  5.844142E-01
       244 0001-01-01 08:08:00.00  4.202672E-02  2.456375E+02  2.456795E+02  5.000000E+11
                       (05,01,50)  3.021196E-04  7.028076E-03  1.101559E-16  5.862139E-01
       245 0001-01-01 08:10:00.00  4.245947E-02  2.456375E+02  2.456800E+02  5.000000E+11
                       (05,01,50)  3.952949E-04  7.044970E-03  1.800003E-16  5.880043E-01
       246 0001-01-01 08:12:00.00  4.289391E-02  2.456376E+02  2.456805E+02  5.000000E+11
                       (05,01,50)  4.889555E-04  7.060501E-03  2.096252E-16  5.897843E-01
       247 0001-01-01 08:14:00.00  4.332481E-02  2.456376E+02  2.456810E+02  5.000000E+11
                       (05,01,50)  5.830675E-04  7.074503E-03  2.052827E-16  5.915408E-01
       248 0001-01-01 08:16:00.00  4.375002E-02  2.456377E+02  2.456815E+02  5.000000E+11
                       (05,01,50)  6.775867E-04  7.086807E-03  1.637311E-16  5.932605E-01
       249 0001-01-01 08:18:00.00  4.417345E-02  2.456378E+02  2.456820E+02  5.000000E+11
                       (07,01,50)  7.724926E-04  7.097546E-03  1.374206E-16  5.949551E-01
       250 0001-01-01 08:20:00.00  4.459733E-02  2.456378E+02  2.456824E+02  5.000000E+11
                       (01,01,50)  8.677688E-04  7.106795E-03  1.138234E-16  5.966315E-01
       251 0001-01-01 08:22:00.00  4.502286E-02  2.456379E+02  2.456829E+02  5.000000E+11
                       (01,01,50)  9.633958E-04  7.114591E-03  1.226483E-16  5.982935E-01
       252 0001-01-01 08:24:00.00  4.545230E-02  2.456380E+02  2.456834E+02  5.000000E+11
                       (05,01,50)  1.059371E-03  7.121075E-03  1.318696E-16  5.999536E-01
       253 0001-01-01 08:26:00.00  4.588880E-02  2.456381E+02  2.456839E+02  5.000000E+11
                       (05,01,50)  1.155720E-03  7.126503E-03  1.684123E-16  6.016340E-01
       254 0001-01-01 08:28:00.00  4.632952E-02  2.456381E+02  2.456844E+02  5.000000E+11
                       (05,01,50)  1.252408E-03  7.130700E-03  1.511415E-16  6.033207E-01
       255 0001-01-01 08:30:00.00  4.677285E-02  2.456382E+02  2.456850E+02  5.000000E+11
                       (03,01,50)  1.349397E-03  7.133552E-03  1.778355E-16  6.050048E-01
       256 0001-01-01 08:32:00.00  4.721827E-02  2.456382E+02  2.456855E+02  5.000000E+11
                       (03,01,50)  1.446662E-03  7.135017E-03  1.905584E-16  6.066832E-01
       257 0001-01-01 08:34:00.00  4.766555E-02  2.456383E+02  2.456860E+02  5.000000E+11
                       (03,01,50)  1.544176E-03  7.135069E-03  2.040769E-16  6.083544E-01
       258 0001-01-01 08:36:00.00  4.811451E-02  2.456384E+02  2.456865E+02  5.000000E+11
                       (01,01,50)  1.641917E-03  7.133689E-03  1.689579E-16  6.100172E-01
       259 0001-01-01 08:38:00.00  4.856498E-02  2.456384E+02  2.456870E+02  5.000000E+11
                       (01,01,50)  1.739859E-03  7.130861E-03  1.901958E-16  6.116706E-01
       260 0001-01-01 08:40:00.00  4.901682E-02  2.456385E+02  2.456875E+02  5.000000E+11
                       (01,01,50)  1.837976E-03  7.126566E-03  1.203690E-16  6.133135E-01
       261 0001-01-01 08:42:00.00  4.946986E-02  2.456386E+02  2.456880E+02  5.000000E+11
                       (07,01,50)  1.936241E-03  7.120788E-03  1.461029E-16  6.149450E-01
       262 0001-01-01 08:44:00.00  4.992395E-02  2.456386E+02  2.456886E+02  5.000000E+11
                       (07,01,50)  2.034628E-03  7.113511E-03  2.113922E-16  6.165639E-01
       263 0001-01-01 08:46:00.00  5.037186E-02  2.456387E+02  2.456891E+02  5.000000E+11
                       (07,01,50)  2.133043E-03  7.104500E-03  1.975773E-16  6.181502E-01
       264 0001-01-01 08:48:00.00  5.081329E-02  2.456388E+02  2.456896E+02  5.000000E+11
                       (07,01,50)  2.231437E-03  7.093711E-03  1.807498E-16  6.197000E-01
       265 0001-01-01 08:50:00.00  5.125266E-02  2.456389E+02  2.456901E+02  5.000000E+11
                       (07,01,50)  2.329819E-03  7.081281E-03  1.289274E-16  6.212252E-01
       266 0001-01-01 08:52:00.00  5.169347E-02  2.456389E+02  2.456906E+02  5.000000E+11
                       (02,01,50)  2.428209E-03  7.067352E-03  1.301523E-16  6.227385E-01
       267 0001-01-01 08:54:00.00  5.214113E-02  2.456390E+02  2.456911E+02  5.000000E+11
                       (08,01,50)  2.526698E-03  7.052239E-03  1.457700E-16  6.242677E-01
       268 0001-01-01 08:56:00.00  5.259371E-02  2.456391E+02  2.456917E+02  5.000000E+11
                       (08,01,50)  2.625246E-03  7.035854E-03  1.890915E-16  6.258059E-01
       269 0001-01-01 08:58:00.00  5.304908E-02  2.456391E+02  2.456922E+02  5.000000E+11
                       (07,01,50)  2.723791E-03  7.018080E-03  2.684599E-16  6.273428E-01
       270 0001-01-01 09:00:00.00  5.350645E-02  2.456392E+02  2.456927E+02  5.000000E+11
                       (07,01,50)  2.822297E-03  6.998872E-03  2.676715E-16  6.288745E-01
       271 0001-01-01 09:02:00.00  5.396552E-02  2.456393E+02  2.456932E+02  5.000000E+11
                       (07,01,50)  2.920734E-03  6.978210E-03  2.240388E-16  6.303995E-01
       272 0001-01-01 09:04:00.00  5.442608E-02  2.456393E+02  2.456938E+02  5.000000E+11
                       (07,01,50)  3.019075E-03  6.956080E-03  1.550065E-16  6.319165E-01
       273 0001-01-01 09:06:00.00  5.488795E-02  2.456394E+02  2.456943E+02  5.000000E+11
                       (04,01,50)  3.117292E-03  6.932471E-03  9.661193E-17  6.334247E-01
       274 0001-01-01 09:08:00.00  5.535097E-02  2.456395E+02  2.456948E+02  5.000000E+11
                       (08,01,50)  3.215357E-03  6.907375E-03  1.877044E-16  6.349232E-01
       275 0001-01-01 09:10:00.00  5.581498E-02  2.456395E+02  2.456954E+02  5.000000E+11
                       (08,01,50)  3.313243E-03  6.880781E-03  2.230577E-16  6.364110E-01
       276 0001-01-01 09:12:00.00  5.627983E-02  2.456396E+02  2.456959E+02  5.000000E+11
                       (08,01,50)  3.410921E-03  6.852683E-03  2.490243E-16  6.378874E-01
       277 0001-01-01 09:14:00.00  5.674535E-02  2.456397E+02  2.456964E+02  5.000000E+11
                       (10,01,50)  3.508362E-03  6.823071E-03  3.023473E-16  6.393514E-01
       278 0001-01-01 09:16:00.00  5.721141E-02  2.456398E+02  2.456970E+02  5.000000E+11
                       (10,01,50)  3.605536E-03  6.791941E-03  3.011429E-16  6.408022E-01
       279 0001-01-01 09:18:00.00  5.767785E-02  2.456398E+02  2.456975E+02  5.000000E+11
                       (10,01,50)  3.702413E-03  6.759283E-03  2.070224E-16  6.422388E-01
       280 0001-01-01 09:20:00.00  5.814450E-02  2.456399E+02  2.456980E+02  5.000000E+11
                       (10,01,50)  3.798962E-03  6.725093E-03  1.367635E-16  6.436603E-01
       281 0001-01-01 09:22:00.00  5.860617E-02  2.456400E+02  2.456986E+02  5.000000E+11
                       (01,01,50)  3.895110E-03  6.689293E-03  1.358671E-16  6.450588E-01
       282 0001-01-01 09:24:00.00  5.906262E-02  2.456400E+02  2.456991E+02  5.000000E+11
                       (01,01,50)  3.990814E-03  6.651865E-03  1.882182E-16  6.464320E-01
       283 0001-01-01 09:26:00.00  5.952016E-02  2.456401E+02  2.456996E+02  5.000000E+11
                       (10,01,50)  4.086170E-03  6.613025E-03  2.393013E-16  6.478002E-01
       284 0001-01-01 09:28:00.00  5.998013E-02  2.456402E+02  2.457002E+02  5.000000E+11
                       (10,01,50)  4.181185E-03  6.572814E-03  2.915037E-16  6.491671E-01
       285 0001-01-01 09:30:00.00  6.044220E-02  2.456403E+02  2.457007E+02  5.000000E+11
                       (10,01,50)  4.275825E-03  6.531212E-03  2.391232E-16  6.505308E-01
       286 0001-01-01 09:32:00.00  6.090597E-02  2.456403E+02  2.457012E+02  5.000000E+11
                       (10,01,50)  4.370055E-03  6.488203E-03  2.392304E-16  6.518891E-01
       287 0001-01-01 09:34:00.00  6.137116E-02  2.456404E+02  2.457018E+02  5.000000E+11
                       (01,01,50)  4.463843E-03  6.443777E-03  1.895901E-16  6.532406E-01
       288 0001-01-01 09:36:00.00  6.183755E-02  2.456405E+02  2.457023E+02  5.000000E+11
                       (01,01,50)  4.557160E-03  6.397928E-03  2.235351E-16  6.545842E-01
       289 0001-01-01 09:38:00.00  6.230494E-02  2.456405E+02  2.457028E+02  5.000000E+11
                       (01,01,50)  4.649978E-03  6.350653E-03  2.403189E-16  6.559190E-01
       290 0001-01-01 09:40:00.00  6.277315E-02  2.456406E+02  2.457034E+02  5.000000E+11
                       (01,01,50)  4.742268E-03  6.301949E-03  1.893000E-16  6.572442E-01
       291 0001-01-01 09:42:00.00  6.324203E-02  2.456407E+02  2.457039E+02  5.000000E+11
                       (01,01,50)  4.834002E-03  6.251816E-03  2.059035E-16  6.585589E-01
       292 0001-01-01 09:44:00.00  6.371139E-02  2.456408E+02  2.457045E+02  5.000000E+11
                       (02,01,50)  4.925151E-03  6.200255E-03  2.061920E-16  6.598625E-01
       293 0001-01-01 09:46:00.00  6.418110E-02  2.456408E+02  2.457050E+02  5.000000E+11
                       (02,01,50)  5.015686E-03  6.147266E-03  2.403081E-16  6.611542E-01
       294 0001-01-01 09:48:00.00  6.465099E-02  2.456409E+02  2.457055E+02  5.000000E+11
                       (02,01,50)  5.105578E-03  6.092851E-03  2.755419E-16  6.624333E-01
       295 0001-01-01 09:50:00.00  6.512091E-02  2.456410E+02  2.457061E+02  5.000000E+11
                       (02,01,50)  5.194799E-03  6.037013E-03  2.400592E-16  6.636989E-01
       296 0001-01-01 09:52:00.00  6.559053E-02  2.456410E+02  2.457066E+02  5.000000E+11
                       (03,01,50)  5.283320E-03  5.979754E-03  2.072633E-16  6.649505E-01
       297 0001-01-01 09:54:00.00  6.606003E-02  2.456411E+02  2.457072E+02  5.000000E+11
                       (03,01,50)  5.371132E-03  5.921105E-03  3.102520E-16  6.661902E-01
       298 0001-01-01 09:56:00.00  6.653000E-02  2.456412E+02  2.457077E+02  5.000000E+11
                       (03,01,50)  5.458240E-03  5.861101E-03  3.617745E-16  6.674209E-01
       299 0001-01-01 09:58:00.00  6.700063E-02  2.456412E+02  2.457082E+02  5.000000E+11
                       (03,01,50)  5.544629E-03  5.799759E-03  3.271014E-16  6.686435E-01
       300 0001-01-01 10:00:00.00  6.747198E-02  2.456413E+02  2.457088E+02  5.000000E+11
                       (03,01,50)  5.630279E-03  5.737090E-03  2.412710E-16  6.698582E-01
      WRT_HIS     - wrote history     fields (Index=1,1) in record = 0000006
       301 0001-01-01 10:02:00.00  6.794408E-02  2.456414E+02  2.457093E+02  5.000000E+11
                       (03,01,50)  5.715170E-03  5.673104E-03  1.555445E-16  6.710651E-01
       302 0001-01-01 10:04:00.00  6.841124E-02  2.456415E+02  2.457099E+02  5.000000E+11
                       (01,01,50)  5.799194E-03  5.607728E-03  8.814038E-17  6.722540E-01
       303 0001-01-01 10:06:00.00  6.887245E-02  2.456415E+02  2.457104E+02  5.000000E+11
                       (01,01,50)  5.882253E-03  5.540906E-03  1.922648E-16  6.734166E-01
       304 0001-01-01 10:08:00.00  6.933347E-02  2.456416E+02  2.457109E+02  5.000000E+11
                       (03,01,50)  5.964471E-03  5.472793E-03  3.797983E-16  6.745697E-01
       305 0001-01-01 10:10:00.00  6.979546E-02  2.456417E+02  2.457115E+02  5.000000E+11
                       (03,01,50)  6.045853E-03  5.403423E-03  4.134338E-16  6.757162E-01
       306 0001-01-01 10:12:00.00  7.025836E-02  2.456417E+02  2.457120E+02  5.000000E+11
                       (03,01,50)  6.126372E-03  5.332800E-03  4.143226E-16  6.768554E-01
       307 0001-01-01 10:14:00.00  7.072192E-02  2.456418E+02  2.457125E+02  5.000000E+11
                       (03,01,50)  6.205999E-03  5.260927E-03  3.109167E-16  6.779860E-01
       308 0001-01-01 10:16:00.00  7.118594E-02  2.456419E+02  2.457131E+02  5.000000E+11
                       (05,01,50)  6.284703E-03  5.187809E-03  1.883703E-16  6.791071E-01
       309 0001-01-01 10:18:00.00  7.165020E-02  2.456420E+02  2.457136E+02  5.000000E+11
                       (06,01,50)  6.362458E-03  5.113452E-03  2.038159E-16  6.802178E-01
       310 0001-01-01 10:20:00.00  7.211454E-02  2.456420E+02  2.457142E+02  5.000000E+11
                       (06,01,50)  6.439237E-03  5.037866E-03  2.744960E-16  6.813175E-01
       311 0001-01-01 10:22:00.00  7.257879E-02  2.456421E+02  2.457147E+02  5.000000E+11
                       (05,01,50)  6.515013E-03  4.961059E-03  2.593850E-16  6.824054E-01
       312 0001-01-01 10:24:00.00  7.304279E-02  2.456422E+02  2.457152E+02  5.000000E+11
                       (05,01,50)  6.589761E-03  4.883043E-03  3.278864E-16  6.834810E-01
       313 0001-01-01 10:26:00.00  7.350619E-02  2.456422E+02  2.457158E+02  5.000000E+11
                       (05,01,50)  6.663458E-03  4.803829E-03  2.939944E-16  6.845439E-01
       314 0001-01-01 10:28:00.00  7.396938E-02  2.456423E+02  2.457163E+02  5.000000E+11
[...]
                       (10,01,50)  7.808200E-03  2.780819E-03  1.138577E-15  6.907169E-01
       628 0001-01-01 20:56:00.00  1.183198E-01  2.456499E+02  2.457683E+02  5.000000E+11
                       (10,01,50)  7.771121E-03  2.882695E-03  1.033836E-15  6.907135E-01
       629 0001-01-01 20:58:00.00  1.183098E-01  2.456499E+02  2.457683E+02  5.000000E+11
                       (10,01,50)  7.732714E-03  2.984077E-03  8.244061E-16  6.907101E-01
       630 0001-01-01 21:00:00.00  1.182998E-01  2.456500E+02  2.457683E+02  5.000000E+11
                       (10,01,50)  7.692983E-03  3.084948E-03  5.461714E-16  6.907066E-01
       631 0001-01-01 21:02:00.00  1.182899E-01  2.456500E+02  2.457682E+02  5.000000E+11
                       (01,01,50)  7.651937E-03  3.185289E-03  6.001873E-16  6.907032E-01
       632 0001-01-01 21:04:00.00  1.182800E-01  2.456500E+02  2.457682E+02  5.000000E+11
                       (01,01,50)  7.609582E-03  3.285085E-03  7.388608E-16  6.906998E-01
       633 0001-01-01 21:06:00.00  1.182701E-01  2.456500E+02  2.457682E+02  5.000000E+11
                       (01,01,50)  7.565926E-03  3.384317E-03  5.978999E-16  6.906963E-01
       634 0001-01-01 21:08:00.00  1.182604E-01  2.456500E+02  2.457682E+02  5.000000E+11
                       (10,01,50)  7.520976E-03  3.482970E-03  6.394799E-16  6.906929E-01
       635 0001-01-01 21:10:00.00  1.182506E-01  2.456500E+02  2.457682E+02  5.000000E+11
                       (02,01,50)  7.474739E-03  3.581026E-03  9.339740E-16  6.906894E-01
       636 0001-01-01 21:12:00.00  1.182409E-01  2.456500E+02  2.457682E+02  5.000000E+11
                       (02,01,50)  7.427225E-03  3.678468E-03  1.104441E-15  6.906860E-01
       637 0001-01-01 21:14:00.00  1.182313E-01  2.456500E+02  2.457682E+02  5.000000E+11
                       (02,01,50)  7.378439E-03  3.775280E-03  1.239953E-15  6.906826E-01
       638 0001-01-01 21:16:00.00  1.182217E-01  2.456500E+02  2.457682E+02  5.000000E+11
                       (02,01,50)  7.328393E-03  3.871445E-03  1.237313E-15  6.906791E-01
       639 0001-01-01 21:18:00.00  1.182121E-01  2.456500E+02  2.457682E+02  5.000000E+11
                       (02,01,50)  7.277092E-03  3.966946E-03  9.904368E-16  6.906757E-01
       640 0001-01-01 21:20:00.00  1.182026E-01  2.456500E+02  2.457682E+02  5.000000E+11
                       (02,01,50)  7.224548E-03  4.061769E-03  5.383362E-16  6.906723E-01
       641 0001-01-01 21:22:00.00  1.181932E-01  2.456500E+02  2.457682E+02  5.000000E+11
                       (06,01,50)  7.170768E-03  4.155895E-03  4.949084E-16  6.906688E-01
       642 0001-01-01 21:24:00.00  1.181838E-01  2.456500E+02  2.457682E+02  5.000000E+11
                       (06,01,50)  7.115761E-03  4.249309E-03  3.913715E-16  6.906654E-01
       643 0001-01-01 21:26:00.00  1.181744E-01  2.456500E+02  2.457682E+02  5.000000E+11
                       (02,01,50)  7.059538E-03  4.341995E-03  6.748902E-16  6.906619E-01
       644 0001-01-01 21:28:00.00  1.181651E-01  2.456500E+02  2.457682E+02  5.000000E+11
                       (02,01,50)  7.002108E-03  4.433938E-03  8.806859E-16  6.906585E-01
       645 0001-01-01 21:30:00.00  1.181558E-01  2.456500E+02  2.457682E+02  5.000000E+11
                       (02,01,50)  6.943480E-03  4.525121E-03  9.466929E-16  6.906551E-01
       646 0001-01-01 21:32:00.00  1.181466E-01  2.456500E+02  2.457681E+02  5.000000E+11
                       (02,01,50)  6.883665E-03  4.615529E-03  9.434735E-16  6.906516E-01
       647 0001-01-01 21:34:00.00  1.181374E-01  2.456500E+02  2.457681E+02  5.000000E+11
                       (02,01,50)  6.822673E-03  4.705147E-03  8.024441E-16  6.906482E-01
       648 0001-01-01 21:36:00.00  1.181282E-01  2.456500E+02  2.457681E+02  5.000000E+11
                       (03,01,50)  6.760514E-03  4.793958E-03  7.831909E-16  6.906448E-01
       649 0001-01-01 21:38:00.00  1.181191E-01  2.456500E+02  2.457681E+02  5.000000E+11
                       (05,01,50)  6.697199E-03  4.881949E-03  8.095448E-16  6.906413E-01
       650 0001-01-01 21:40:00.00  1.181101E-01  2.456500E+02  2.457681E+02  5.000000E+11
                       (05,01,50)  6.632739E-03  4.969104E-03  8.774326E-16  6.906379E-01
       651 0001-01-01 21:42:00.00  1.181010E-01  2.456500E+02  2.457681E+02  5.000000E+11
                       (05,01,50)  6.567145E-03  5.055407E-03  7.718641E-16  6.906345E-01
       652 0001-01-01 21:44:00.00  1.180921E-01  2.456500E+02  2.457681E+02  5.000000E+11
                       (06,01,50)  6.500428E-03  5.140845E-03  5.650414E-16  6.906310E-01
       653 0001-01-01 21:46:00.00  1.180831E-01  2.456500E+02  2.457681E+02  5.000000E+11
                       (06,01,50)  6.432600E-03  5.225402E-03  5.658275E-16  6.906276E-01
       654 0001-01-01 21:48:00.00  1.180742E-01  2.456500E+02  2.457681E+02  5.000000E+11
                       (10,01,50)  6.363672E-03  5.309065E-03  6.697105E-16  6.906241E-01
       655 0001-01-01 21:50:00.00  1.180654E-01  2.456500E+02  2.457681E+02  5.000000E+11
                       (10,01,50)  6.293655E-03  5.391818E-03  8.770014E-16  6.906207E-01
       656 0001-01-01 21:52:00.00  1.180566E-01  2.456500E+02  2.457681E+02  5.000000E+11
                       (10,01,50)  6.222563E-03  5.473648E-03  9.835500E-16  6.906173E-01
       657 0001-01-01 21:54:00.00  1.180478E-01  2.456500E+02  2.457681E+02  5.000000E+11
                       (07,01,50)  6.150407E-03  5.554541E-03  1.238693E-15  6.906138E-01
       658 0001-01-01 21:56:00.00  1.180391E-01  2.456500E+02  2.457681E+02  5.000000E+11
                       (07,01,50)  6.077199E-03  5.634483E-03  1.270925E-15  6.906104E-01
       659 0001-01-01 21:58:00.00  1.180304E-01  2.456500E+02  2.457681E+02  5.000000E+11
                       (07,01,50)  6.002953E-03  5.713460E-03  1.131430E-15  6.906070E-01
       660 0001-01-01 22:00:00.00  1.180218E-01  2.456500E+02  2.457681E+02  5.000000E+11
                       (07,01,50)  5.927680E-03  5.791459E-03  7.841340E-16  6.906035E-01
      WRT_HIS     - wrote history     fields (Index=1,1) in record = 0000012
       661 0001-01-01 22:02:00.00  1.180132E-01  2.456500E+02  2.457681E+02  5.000000E+11
                       (01,01,50)  5.851393E-03  5.868466E-03  6.349224E-16  6.906001E-01
       662 0001-01-01 22:04:00.00  1.180046E-01  2.456501E+02  2.457681E+02  5.000000E+11
                       (01,01,50)  5.774107E-03  5.944469E-03  6.688604E-16  6.905967E-01
       663 0001-01-01 22:06:00.00  1.179961E-01  2.456501E+02  2.457680E+02  5.000000E+11
                       (10,01,50)  5.695833E-03  6.019453E-03  6.778286E-16  6.905932E-01
       664 0001-01-01 22:08:00.00  1.179876E-01  2.456501E+02  2.457680E+02  5.000000E+11
                       (07,01,50)  5.616586E-03  6.093408E-03  7.043055E-16  6.905898E-01
       665 0001-01-01 22:10:00.00  1.179791E-01  2.456501E+02  2.457680E+02  5.000000E+11
                       (07,01,50)  5.536378E-03  6.166318E-03  9.107220E-16  6.905863E-01
       666 0001-01-01 22:12:00.00  1.179707E-01  2.456501E+02  2.457680E+02  5.000000E+11
                       (07,01,50)  5.455224E-03  6.238174E-03  1.118314E-15  6.905829E-01
       667 0001-01-01 22:14:00.00  1.179623E-01  2.456501E+02  2.457680E+02  5.000000E+11
                       (07,01,50)  5.373138E-03  6.308961E-03  1.117667E-15  6.905795E-01
       668 0001-01-01 22:16:00.00  1.179540E-01  2.456501E+02  2.457680E+02  5.000000E+11
                       (07,01,50)  5.290133E-03  6.378668E-03  1.014309E-15  6.905760E-01
       669 0001-01-01 22:18:00.00  1.179457E-01  2.456501E+02  2.457680E+02  5.000000E+11
                       (07,01,50)  5.206224E-03  6.447283E-03  7.703859E-16  6.905726E-01
       670 0001-01-01 22:20:00.00  1.179374E-01  2.456501E+02  2.457680E+02  5.000000E+11
                       (01,01,50)  5.121425E-03  6.514795E-03  8.252605E-16  6.905692E-01
       671 0001-01-01 22:22:00.00  1.179292E-01  2.456501E+02  2.457680E+02  5.000000E+11
                       (01,01,50)  5.035751E-03  6.581191E-03  7.219297E-16  6.905657E-01
       672 0001-01-01 22:24:00.00  1.179210E-01  2.456501E+02  2.457680E+02  5.000000E+11
                       (01,01,50)  4.949216E-03  6.646461E-03  4.799298E-16  6.905623E-01
       673 0001-01-01 22:26:00.00  1.179129E-01  2.456501E+02  2.457680E+02  5.000000E+11
                       (10,01,50)  4.861836E-03  6.710593E-03  6.478145E-16  6.905589E-01
       674 0001-01-01 22:28:00.00  1.179047E-01  2.456501E+02  2.457680E+02  5.000000E+11
                       (10,01,50)  4.773624E-03  6.773576E-03  7.846152E-16  6.905554E-01
       675 0001-01-01 22:30:00.00  1.178966E-01  2.456501E+02  2.457680E+02  5.000000E+11
                       (09,01,50)  4.684596E-03  6.835400E-03  9.531110E-16  6.905520E-01
       676 0001-01-01 22:32:00.00  1.178886E-01  2.456501E+02  2.457680E+02  5.000000E+11
                       (02,01,50)  4.594768E-03  6.896054E-03  9.222646E-16  6.905486E-01
       677 0001-01-01 22:34:00.00  1.178806E-01  2.456501E+02  2.457680E+02  5.000000E+11
                       (02,01,50)  4.504155E-03  6.955527E-03  8.856944E-16  6.905451E-01
       678 0001-01-01 22:36:00.00  1.178726E-01  2.456501E+02  2.457680E+02  5.000000E+11
                       (02,01,50)  4.412772E-03  7.013810E-03  7.794755E-16  6.905417E-01
       679 0001-01-01 22:38:00.00  1.178647E-01  2.456501E+02  2.457680E+02  5.000000E+11
                       (10,01,50)  4.320635E-03  7.070892E-03  7.031551E-16  6.905382E-01
       680 0001-01-01 22:40:00.00  1.178567E-01  2.456501E+02  2.457680E+02  5.000000E+11
                       (10,01,50)  4.227760E-03  7.126764E-03  1.014545E-15  6.905348E-01
       681 0001-01-01 22:42:00.00  1.178489E-01  2.456501E+02  2.457680E+02  5.000000E+11
                       (10,01,50)  4.134162E-03  7.181416E-03  1.169272E-15  6.905314E-01
       682 0001-01-01 22:44:00.00  1.178410E-01  2.456501E+02  2.457679E+02  5.000000E+11
                       (10,01,50)  4.039858E-03  7.234839E-03  1.029423E-15  6.905279E-01
       683 0001-01-01 22:46:00.00  1.178332E-01  2.456501E+02  2.457679E+02  5.000000E+11
                       (10,01,50)  3.944864E-03  7.287024E-03  6.480968E-16  6.905245E-01
       684 0001-01-01 22:48:00.00  1.178254E-01  2.456501E+02  2.457679E+02  5.000000E+11
                       (04,01,50)  3.849196E-03  7.337961E-03  7.234658E-16  6.905211E-01
       685 0001-01-01 22:50:00.00  1.178177E-01  2.456501E+02  2.457679E+02  5.000000E+11
                       (04,01,50)  3.752870E-03  7.387643E-03  7.739695E-16  6.905176E-01
       686 0001-01-01 22:52:00.00  1.178100E-01  2.456501E+02  2.457679E+02  5.000000E+11
                       (10,01,50)  3.655904E-03  7.436060E-03  9.108279E-16  6.905142E-01
       687 0001-01-01 22:54:00.00  1.178023E-01  2.456501E+02  2.457679E+02  5.000000E+11
                       (10,01,50)  3.558312E-03  7.483205E-03  1.205484E-15  6.905108E-01
       688 0001-01-01 22:56:00.00  1.177947E-01  2.456501E+02  2.457679E+02  5.000000E+11
                       (10,01,50)  3.460113E-03  7.529068E-03  1.310194E-15  6.905073E-01
       689 0001-01-01 22:58:00.00  1.177870E-01  2.456501E+02  2.457679E+02  5.000000E+11
                       (10,01,50)  3.361323E-03  7.573644E-03  1.085314E-15  6.905039E-01
       690 0001-01-01 23:00:00.00  1.177795E-01  2.456501E+02  2.457679E+02  5.000000E+11
                       (05,01,50)  3.261959E-03  7.616923E-03  7.734396E-16  6.905005E-01
       691 0001-01-01 23:02:00.00  1.177719E-01  2.456501E+02  2.457679E+02  5.000000E+11
                       (05,01,50)  3.162038E-03  7.658898E-03  5.999578E-16  6.904970E-01
       692 0001-01-01 23:04:00.00  1.177644E-01  2.456501E+02  2.457679E+02  5.000000E+11
                       (07,01,50)  3.061576E-03  7.699563E-03  5.472264E-16  6.904936E-01
       693 0001-01-01 23:06:00.00  1.177569E-01  2.456501E+02  2.457679E+02  5.000000E+11
                       (10,01,50)  2.960592E-03  7.738910E-03  7.613671E-16  6.904902E-01
       694 0001-01-01 23:08:00.00  1.177494E-01  2.456501E+02  2.457679E+02  5.000000E+11
                       (10,01,50)  2.859103E-03  7.776933E-03  1.142352E-15  6.904867E-01
       695 0001-01-01 23:10:00.00  1.177420E-01  2.456501E+02  2.457679E+02  5.000000E+11
                       (10,01,50)  2.757125E-03  7.813625E-03  1.209479E-15  6.904833E-01
       696 0001-01-01 23:12:00.00  1.177346E-01  2.456501E+02  2.457679E+02  5.000000E+11
                       (10,01,50)  2.654677E-03  7.848979E-03  1.104418E-15  6.904798E-01
       697 0001-01-01 23:14:00.00  1.177272E-01  2.456501E+02  2.457679E+02  5.000000E+11
                       (08,01,50)  2.551775E-03  7.882991E-03  9.526851E-16  6.904764E-01
       698 0001-01-01 23:16:00.00  1.177199E-01  2.456501E+02  2.457679E+02  5.000000E+11
                       (08,01,50)  2.448438E-03  7.915654E-03  1.040437E-15  6.904730E-01
       699 0001-01-01 23:18:00.00  1.177126E-01  2.456501E+02  2.457679E+02  5.000000E+11
                       (08,01,50)  2.344684E-03  7.946962E-03  8.773604E-16  6.904695E-01
       700 0001-01-01 23:20:00.00  1.177053E-01  2.456501E+02  2.457679E+02  5.000000E+11
                       (07,01,50)  2.240529E-03  7.976910E-03  5.683911E-16  6.904661E-01
       701 0001-01-01 23:22:00.00  1.176980E-01  2.456502E+02  2.457678E+02  5.000000E+11
                       (06,01,50)  2.135991E-03  8.005493E-03  6.994319E-16  6.904627E-01
       702 0001-01-01 23:24:00.00  1.176908E-01  2.456502E+02  2.457678E+02  5.000000E+11
                       (06,01,50)  2.031090E-03  8.032706E-03  7.515153E-16  6.904592E-01
       703 0001-01-01 23:26:00.00  1.176836E-01  2.456502E+02  2.457678E+02  5.000000E+11
                       (06,01,50)  1.925842E-03  8.058545E-03  6.305921E-16  6.904558E-01
       704 0001-01-01 23:28:00.00  1.176765E-01  2.456502E+02  2.457678E+02  5.000000E+11
                       (10,01,50)  1.820265E-03  8.083004E-03  5.953460E-16  6.904524E-01
       705 0001-01-01 23:30:00.00  1.176693E-01  2.456502E+02  2.457678E+02  5.000000E+11
                       (08,01,50)  1.714378E-03  8.106081E-03  6.861835E-16  6.904489E-01
       706 0001-01-01 23:32:00.00  1.176622E-01  2.456502E+02  2.457678E+02  5.000000E+11
                       (07,01,50)  1.608199E-03  8.127771E-03  7.373108E-16  6.904455E-01
       707 0001-01-01 23:34:00.00  1.176551E-01  2.456502E+02  2.457678E+02  5.000000E+11
                       (07,01,50)  1.501746E-03  8.148069E-03  1.107249E-15  6.904421E-01
       708 0001-01-01 23:36:00.00  1.176481E-01  2.456502E+02  2.457678E+02  5.000000E+11
                       (07,01,50)  1.395037E-03  8.166974E-03  1.331437E-15  6.904386E-01
       709 0001-01-01 23:38:00.00  1.176411E-01  2.456502E+02  2.457678E+02  5.000000E+11
                       (07,01,50)  1.288090E-03  8.184481E-03  1.322447E-15  6.904352E-01
       710 0001-01-01 23:40:00.00  1.176341E-01  2.456502E+02  2.457678E+02  5.000000E+11
                       (07,01,50)  1.180924E-03  8.200588E-03  1.210899E-15  6.904318E-01
       711 0001-01-01 23:42:00.00  1.176271E-01  2.456502E+02  2.457678E+02  5.000000E+11
                       (07,01,50)  1.073557E-03  8.215292E-03  8.389519E-16  6.904283E-01
       712 0001-01-01 23:44:00.00  1.176201E-01  2.456502E+02  2.457678E+02  5.000000E+11
                       (02,01,50)  9.660075E-04  8.228590E-03  6.497087E-16  6.904249E-01
       713 0001-01-01 23:46:00.00  1.176132E-01  2.456502E+02  2.457678E+02  5.000000E+11
                       (06,01,50)  8.582937E-04  8.240480E-03  7.964139E-16  6.904215E-01
       714 0001-01-01 23:48:00.00  1.176063E-01  2.456502E+02  2.457678E+02  5.000000E+11
                       (06,01,50)  7.504342E-04  8.250960E-03  8.379843E-16  6.904180E-01
       715 0001-01-01 23:50:00.00  1.175995E-01  2.456502E+02  2.457678E+02  5.000000E+11
                       (07,01,50)  6.424473E-04  8.260029E-03  7.810897E-16  6.904146E-01
       716 0001-01-01 23:52:00.00  1.175926E-01  2.456502E+02  2.457678E+02  5.000000E+11
                       (07,01,50)  5.343517E-04  8.267684E-03  7.975112E-16  6.904112E-01
       717 0001-01-01 23:54:00.00  1.175858E-01  2.456502E+02  2.457678E+02  5.000000E+11
                       (05,01,50)  4.261656E-04  8.273925E-03  8.836346E-16  6.904077E-01
       718 0001-01-01 23:56:00.00  1.175790E-01  2.456502E+02  2.457678E+02  5.000000E+11
                       (05,01,50)  3.179078E-04  8.278750E-03  1.055599E-15  6.904043E-01
       719 0001-01-01 23:58:00.00  1.175722E-01  2.456502E+02  2.457678E+02  5.000000E+11
                       (05,01,50)  2.095966E-04  8.282158E-03  1.056082E-15  6.904008E-01
       720 0001-01-02 00:00:00.00  1.175655E-01  2.456502E+02  2.457678E+02  5.000000E+11
                       (05,01,50)  1.012507E-04  8.284150E-03  8.783074E-16  6.903974E-01
      WRT_HIS     - wrote history     fields (Index=1,1) in record = 0000013
      WRT_RST     - wrote re-start    fields (Index=1,1) in record = 0000001

 Elapsed CPU time (seconds):

 Thread #    0 CPU:       2.404
 Total:                   2.404

 Nonlinear model elapsed CPU time profile, Grid: 01

  Allocation and array initialization ..............         0.002  ( 0.1000 %)
  Ocean state initialization .......................         0.002  ( 0.0830 %)
  Reading of input data ............................         0.001  ( 0.0483 %)
  Processing of input data .........................         0.003  ( 0.1090 %)
  Computation of vertical boundary conditions ......         0.002  ( 0.0978 %)
  Computation of global information integrals ......         0.056  ( 2.3243 %)
  Writing of output data ...........................         0.065  ( 2.6986 %)
  Model 2D kernel ..................................         0.264  (10.9972 %)
  2D/3D coupling, vertical metrics .................         0.054  ( 2.2545 %)
  Omega vertical velocity ..........................         0.039  ( 1.6348 %)
  Equation of state for seawater ...................         0.141  ( 5.8822 %)
  KPP vertical mixing parameterization .............         0.654  (27.2173 %)
  3D equations right-side terms ....................         0.147  ( 6.0992 %)
  3D equations predictor step ......................         0.276  (11.4911 %)
  Pressure gradient ................................         0.099  ( 4.1187 %)
  Harmonic stress tensor, S-surfaces ...............         0.076  ( 3.1547 %)
  Corrector time-step for 3D momentum ..............         0.187  ( 7.7686 %)
  Corrector time-step for tracers ..................         0.248  (10.3244 %)
                                              Total:         2.318   96.4037

  Unique code regions profiled .....................         2.318   96.4037 %
  Residual, non-profiled code ......................         0.086    3.5963 %


 All percentages are with respect to total time =            2.404


>>>>>>>>>>>>>>>>>>>>>>>>>>>>>>>>>>>>>>>>>>>>>>>>>>>>>>>>>>>>>>>>>>>>>>>>>>>>>>>>

 Dynamic and Automatic memory (MB) usage for Grid 01:  10x10x50  tiling: 1x1

     tile          Dynamic        Automatic            USAGE

        0             4.14             0.67             4.80

    TOTAL             4.14             0.67             4.80

<<<<<<<<<<<<<<<<<<<<<<<<<<<<<<<<<<<<<<<<<<<<<<<<<<<<<<<<<<<<<<<<<<<<<<<<<<<<<<<<

 ROMS/TOMS - Output NetCDF summary for Grid 01:
             number of time records written in HISTORY file = 00000013
             number of time records written in RESTART file = 00000001
             number of time records written in STATION file = 00000721

 Analytical header files used:

     ROMS/Functionals/ana_btflux.h
     ROMS/Functionals/ana_grid.h
     ROMS/Functionals/ana_initial.h
     ROMS/Functionals/ana_smflux.h
     ROMS/Functionals/ana_srflux.h
     ROMS/Functionals/ana_stflux.h

 ROMS/TOMS: DONE... Thursday - January 31, 2019 -  5:19:49 PM
