--------------------------------------------------------------------------------
 Model Input Parameters:  ROMS/TOMS version 3.7  
                          Tuesday - February 20, 2018 - 10:28:49 AM
 --------------------------------------------------------------------------------

 Equatorial Rossby Soliton Test

 Operating system : Linux
 CPU/hardware     : x86_64
 Compiler system  : gfortran
 Compiler command : /usr/bin/gfortran
 Compiler flags   : -frepack-arrays -O3 -ffast-math -ffree-form -ffree-line-length-none -ffree-form -ffree-line-length-none

 Git Origin URL: git@github.com:hadfieldnz/roms-trunk-mgh.git
 Git Revision  : master commit 76d3604b85bc7bb2b0c0fdb1162636a906377fb9
 Git Status    : The working tree is clean

 Local Root    : /home/hadfield/ROMS/roms-trunk-mgh
 Header Dir    : /home/hadfield/ROMS/roms-test-mgh/soliton
 Header file   : soliton.h
 Analytical Dir: /home/hadfield/ROMS/roms-trunk-mgh/ROMS/Functionals

 Resolution, Grid 01: 0096x0032x001,  Parallel Threads:  1,  Tiling: 001x001


 Physical Parameters, Grid: 01
 =============================

       2400  ntimes            Number of timesteps for 3-D equations.
      0.050  dt                Timestep size (s) for 3-D equations.
          1  ndtfast           Number of timesteps for 2-D equations between
                                 each 3D timestep.
          1  ERstr             Starting ensemble/perturbation run number.
          1  ERend             Ending ensemble/perturbation run number.
          0  nrrec             Number of restart records to read from disk.
          T  LcycleRST         Switch to recycle time-records in restart file.
        800  nRST              Number of timesteps between the writing of data
                                 into restart fields.
          1  ninfo             Number of timesteps between print of information
                                 to standard output.
          T  ldefout           Switch to create a new output NetCDF file(s).
         80  nHIS              Number of timesteps between the writing fields
                                 into history file.
          0  nQCK              Number of timesteps between the writing fields
                                 into quicksave file.
          F  LuvSponge         Turning OFF sponge on horizontal momentum.
 3.0000E-04  rdrg              Linear bottom drag coefficient (m/s).
 3.0000E-03  rdrg2             Quadratic bottom drag coefficient.
 2.0000E-02  Zob               Bottom roughness (m).
   1025.000  rho0              Mean density (kg/m3) for Boussinesq approximation.
      0.000  dstart            Time-stamp assigned to model initialization (days).
       0.00  time_ref          Reference time for units attribute (yyyymmdd.dd)
 0.0000E+00  Znudg             Nudging/relaxation time scale (days)
                                 for free-surface.
 0.0000E+00  M2nudg            Nudging/relaxation time scale (days)
                                 for 2D momentum.
 0.0000E+00  obcfac            Factor between passive and active
                                 open boundary conditions.
          F  VolCons(1)        NLM western  edge boundary volume conservation.
          F  VolCons(2)        NLM southern edge boundary volume conservation.
          F  VolCons(3)        NLM eastern  edge boundary volume conservation.
          F  VolCons(4)        NLM northern edge boundary volume conservation.
      1.000  gamma2            Slipperiness variable: free-slip (1.0) or 
                                                      no-slip (-1.0).
          F  LuvSrc            Turning OFF momentum point Sources/Sinks.
          F  LwSrc             Turning OFF volume influx point Sources/Sinks.
          F  LsshCLM           Turning OFF processing of SSH climatology.
          F  Lm2CLM            Turning OFF processing of 2D momentum climatology.
          F  LnudgeM2CLM       Turning OFF nudging of 2D momentum climatology.

          T  Hout(idFsur)      Write out free-surface.
          T  Hout(idUbar)      Write out 2D U-momentum component.
          T  Hout(idVbar)      Write out 2D V-momentum component.

 Output/Input Files:

             Output Restart File:  ocean_rst.nc
             Output History File:  ocean_his.nc

 Tile partition information for Grid 01:  0096x0032  tiling: 001x001

     tile     Istr     Iend     Jstr     Jend     Npts

        0        1       96        1       32     3072

 Tile minimum and maximum fractional coordinates for Grid 01:
   (interior points only)

     tile     Xmin     Xmax     Ymin     Ymax     grid

        0    -1.50    98.50     0.50    33.50  RHO-points

        0    -2.00    98.00     0.50    33.50    U-points

        0    -1.50    98.50     0.00    33.00    V-points

 Lateral Boundary Conditions: NLM
 ============================

 Variable               Grid  West Edge    South Edge   East Edge    North Edge
 ---------              ----  ----------   ----------   ----------   ----------

 zeta                     1   Periodic     Closed       Periodic     Closed

 ubar                     1   Periodic     Closed       Periodic     Closed

 vbar                     1   Periodic     Closed       Periodic     Closed

 Activated C-preprocessing Options:

 SOLITON             Equatorial Rossby Soliton Test
 ANA_GRID            Analytical grid set-up.
 ANA_INITIAL         Analytical initial conditions.
 ANA_SMFLUX          Analytical kinematic surface momentum flux.
 ASSUMED_SHAPE       Using assumed-shape arrays.
 DOUBLE_PRECISION    Double precision arithmetic.
 NONLINEAR           Nonlinear Model.
 PROFILE             Time profiling activated .
 !RST_SINGLE         Double precision fields in restart NetCDF file.
 UV_ADV              Advection of momentum.
 UV_COR              Coriolis term.
 UV_C4ADVECTION      Fourth-order centered differences advection of momentum.
 UV_QDRAG            Quadratic bottom stress.

 Process Information:

 Thread #  0 (pid=   24756) is active.

 INITIAL: Configuring and initializing forward nonlinear model ...
 *******

    ANA_GRID    - x-location of PSI-points: x_psi
                   (Grid = 01, Min =  0.00000000E+00 Max =  4.75000000E+01)
    ANA_GRID    - y-location of PSI-points: y_psi
                   (Grid = 01, Min =  0.00000000E+00 Max =  1.60000000E+01)
    ANA_GRID    - x-location of RHO-points: x_rho
                   (Grid = 01, Min =  2.50000000E-01 Max =  4.77500000E+01)
    ANA_GRID    - y-location of RHO-points: y_rho
                   (Grid = 01, Min = -2.50000000E-01 Max =  1.62500000E+01)
    ANA_GRID    - x-location of U-points: x_u
                   (Grid = 01, Min =  0.00000000E+00 Max =  4.75000000E+01)
    ANA_GRID    - y-location of U-points: y_u
                   (Grid = 01, Min = -2.50000000E-01 Max =  1.62500000E+01)
    ANA_GRID    - x-location of V-points: x_v
                   (Grid = 01, Min =  2.50000000E-01 Max =  4.77500000E+01)
    ANA_GRID    - y-location of V-points: y_v
                   (Grid = 01, Min =  0.00000000E+00 Max =  1.60000000E+01)
    ANA_GRID    - reciprocal XI-grid spacing: pm
                   (Grid = 01, Min =  2.00000000E+00 Max =  2.00000000E+00)
    ANA_GRID    - reciprocal ETA-grid spacing: pn
                   (Grid = 01, Min =  2.00000000E+00 Max =  2.00000000E+00)
    ANA_GRID    - angle between XI-axis and EAST: angler
                   (Grid = 01, Min =  0.00000000E+00 Max =  0.00000000E+00)
    ANA_GRID    - Coriolis parameter at RHO-points: f
                   (Grid = 01, Min = -8.25000000E+00 Max =  8.25000000E+00)
    ANA_GRID    - bathymetry at RHO-points: h
                   (Grid = 01, Min =  1.00000000E+00 Max =  1.00000000E+00)

 Metrics information for Grid 01:
 ===============================

 Minimum X-grid spacing, DXmin =  5.00000000E-04 km
 Maximum X-grid spacing, DXmax =  5.00000000E-04 km
 Minimum Y-grid spacing, DYmin =  5.00000000E-04 km
 Maximum Y-grid spacing, DYmax =  5.00000000E-04 km

 Minimum barotropic Courant Number =  1.41421356E-01
 Maximum barotropic Courant Number =  1.41421356E-01
 Maximum Coriolis   Courant Number =  4.12500000E-01

    ANA_INITIAL - vertically integrated u-momentum component: ubar
                   (Grid = 01, Min = -2.51406197E-01 Max =  6.09742446E-02)
    ANA_INITIAL - vertically integrated v-momentum component: vbar
                   (Grid = 01, Min = -4.42788776E-02 Max =  4.42788776E-02)
    ANA_INITIAL - free-surface: zeta
                   (Grid = 01, Min =  1.05126217E-24 Max =  1.68738054E-01)

 Basin information for Grid 01:


 Initial domain volumes:  TotVolume =  7.7143520393E+02 m3
                         MinCellVol =  2.5000000000E-01 m3
                         MaxCellVol =  2.9218451358E-01 m3
                            Max/Min =  1.1687380543E+00

 NL ROMS/TOMS: started time-stepping: (Grid: 01 TimeSteps: 000000000001 - 000000002400)


 TIME-STEP YYYY-MM-DD hh:mm:ss.ss  KINETIC_ENRG   POTEN_ENRG    TOTAL_ENRG    NET_VOLUME
                       C => (i,j)       Cu            Cv           C Max       Max Speed

         0 0001-01-01 00:00:00.00  2.207844E-04  1.893904E-04  4.101749E-04  7.714352E+02
                          (64,16)  2.466277E-02  4.087514E-04  2.507152E-02  2.467417E-01
      DEF_HIS     - creating  history      file, Grid 01: ocean_his.nc
      WRT_HIS     - wrote history     fields (Index=1)   in record = 0000001
      DEF_RST   - creating restart file: ocean_rst.nc
         1 0001-01-01 00:00:00.00  2.207882E-04  1.893988E-04  4.101870E-04  7.714352E+02
                          (64,16)  2.471746E-02  3.588564E-04  2.507631E-02  2.472623E-01
         2 0001-01-01 00:00:00.00  2.208928E-04  1.892625E-04  4.101553E-04  7.714352E+02
                          (64,16)  2.476256E-02  3.109411E-04  2.507350E-02  2.476910E-01
         3 0001-01-01 00:00:00.00  2.210598E-04  1.890645E-04  4.101243E-04  7.714352E+02
                          (64,16)  2.480078E-02  2.643305E-04  2.506511E-02  2.480544E-01
         4 0001-01-01 00:00:00.00  2.212676E-04  1.888483E-04  4.101160E-04  7.714352E+02
                          (64,16)  2.483350E-02  2.192219E-04  2.505272E-02  2.483663E-01
         5 0001-01-01 00:00:00.00  2.215303E-04  1.885768E-04  4.101071E-04  7.714352E+02
                          (64,16)  2.485901E-02  1.764962E-04  2.503551E-02  2.486096E-01
         6 0001-01-01 00:00:00.00  2.218437E-04  1.882546E-04  4.100984E-04  7.714352E+02
                          (64,16)  2.487761E-02  1.364283E-04  2.501404E-02  2.487868E-01
         7 0001-01-01 00:00:00.00  2.222029E-04  1.878869E-04  4.100898E-04  7.714352E+02
                          (64,16)  2.488942E-02  9.933075E-05  2.498875E-02  2.488991E-01
         8 0001-01-01 00:00:00.00  2.226019E-04  1.874794E-04  4.100814E-04  7.714352E+02
                          (64,16)  2.489463E-02  6.543718E-05  2.496007E-02  2.489481E-01
         9 0001-01-01 00:00:00.00  2.230348E-04  1.870381E-04  4.100730E-04  7.714352E+02
                          (64,16)  2.489351E-02  3.490331E-05  2.492841E-02  2.489359E-01
        10 0001-01-01 00:00:00.00  2.234952E-04  1.865693E-04  4.100645E-04  7.714352E+02
                          (63,16)  2.412832E-02  7.969361E-04  2.492525E-02  2.488654E-01
        11 0001-01-01 00:00:01.00  2.239769E-04  1.860792E-04  4.100561E-04  7.714352E+02
                          (63,16)  2.421614E-02  7.837842E-04  2.499992E-02  2.487397E-01
        12 0001-01-01 00:00:01.00  2.244735E-04  1.855740E-04  4.100475E-04  7.714352E+02
                          (63,16)  2.429674E-02  7.739391E-04  2.507067E-02  2.485624E-01
        13 0001-01-01 00:00:01.00  2.249792E-04  1.850596E-04  4.100388E-04  7.714352E+02
                          (63,16)  2.437013E-02  7.671466E-04  2.513728E-02  2.483377E-01
        14 0001-01-01 00:00:01.00  2.254883E-04  1.845416E-04  4.100299E-04  7.714352E+02
                          (63,16)  2.443643E-02  7.630752E-04  2.519950E-02  2.480697E-01
        15 0001-01-01 00:00:01.00  2.259953E-04  1.840254E-04  4.100207E-04  7.714352E+02
                          (63,16)  2.449577E-02  7.613228E-04  2.525709E-02  2.477631E-01
        16 0001-01-01 00:00:01.00  2.264953E-04  1.835159E-04  4.100113E-04  7.714352E+02
                          (63,16)  2.454837E-02  7.614240E-04  2.530979E-02  2.474225E-01
        17 0001-01-01 00:00:01.00  2.269840E-04  1.830175E-04  4.100015E-04  7.714352E+02
                          (63,17)  2.459450E-02  7.628595E-04  2.535736E-02  2.470525E-01
        18 0001-01-01 00:00:01.00  2.274570E-04  1.825344E-04  4.099914E-04  7.714352E+02
                          (63,16)  2.463447E-02  7.650665E-04  2.539953E-02  2.466579E-01
        19 0001-01-01 00:00:01.00  2.279108E-04  1.820701E-04  4.099809E-04  7.714352E+02
                          (63,16)  2.466864E-02  7.674501E-04  2.543609E-02  2.469647E-01
        20 0001-01-01 00:00:01.00  2.283421E-04  1.816280E-04  4.099701E-04  7.714352E+02
                          (63,16)  2.469741E-02  7.693952E-04  2.546680E-02  2.472466E-01
        21 0001-01-01 00:00:01.00  2.287478E-04  1.812110E-04  4.099588E-04  7.714352E+02
                          (63,16)  2.472121E-02  7.702789E-04  2.549149E-02  2.474791E-01
        22 0001-01-01 00:00:01.00  2.291255E-04  1.808217E-04  4.099473E-04  7.714352E+02
                          (63,16)  2.474050E-02  7.694833E-04  2.550998E-02  2.476663E-01
        23 0001-01-01 00:00:01.00  2.294729E-04  1.804624E-04  4.099353E-04  7.714352E+02
                          (63,16)  2.475574E-02  7.664074E-04  2.552215E-02  2.478124E-01
        24 0001-01-01 00:00:01.00  2.297883E-04  1.801348E-04  4.099231E-04  7.714352E+02
                          (63,16)  2.476743E-02  7.604802E-04  2.552791E-02  2.479219E-01
        25 0001-01-01 00:00:01.00  2.300701E-04  1.798405E-04  4.099106E-04  7.714352E+02
                          (63,16)  2.477604E-02  7.511709E-04  2.552721E-02  2.479993E-01
        26 0001-01-01 00:00:01.00  2.303173E-04  1.795805E-04  4.098978E-04  7.714352E+02
                          (63,16)  2.478206E-02  7.380008E-04  2.552007E-02  2.480490E-01
        27 0001-01-01 00:00:01.00  2.305293E-04  1.793555E-04  4.098848E-04  7.714352E+02
                          (63,16)  2.478597E-02  7.205517E-04  2.550652E-02  2.480757E-01
        28 0001-01-01 00:00:01.00  2.307061E-04  1.791656E-04  4.098717E-04  7.714352E+02
                          (63,16)  2.478820E-02  6.984754E-04  2.548668E-02  2.480837E-01
        29 0001-01-01 00:00:01.00  2.308480E-04  1.790105E-04  4.098585E-04  7.714352E+02
                          (63,16)  2.478921E-02  6.714999E-04  2.546071E-02  2.480775E-01
        30 0001-01-01 00:00:02.00  2.309561E-04  1.788891E-04  4.098452E-04  7.714352E+02
                          (63,16)  2.478939E-02  6.394353E-04  2.542882E-02  2.480612E-01
        31 0001-01-01 00:00:02.00  2.310319E-04  1.788001E-04  4.098320E-04  7.714352E+02
                          (63,16)  2.478911E-02  6.021779E-04  2.539129E-02  2.480389E-01
        32 0001-01-01 00:00:02.00  2.310776E-04  1.787413E-04  4.098189E-04  7.714352E+02
                          (63,16)  2.478872E-02  5.597125E-04  2.534843E-02  2.480145E-01
        33 0001-01-01 00:00:02.00  2.310960E-04  1.787099E-04  4.098059E-04  7.714352E+02
                          (63,16)  2.478852E-02  5.121132E-04  2.530063E-02  2.479914E-01
        34 0001-01-01 00:00:02.00  2.310903E-04  1.787027E-04  4.097930E-04  7.714352E+02
                          (63,16)  2.478876E-02  4.595421E-04  2.524830E-02  2.479730E-01
        35 0001-01-01 00:00:02.00  2.310643E-04  1.787161E-04  4.097804E-04  7.714352E+02
                          (62,16)  2.395058E-02  1.276457E-03  2.522704E-02  2.479620E-01
        36 0001-01-01 00:00:02.00  2.310224E-04  1.787457E-04  4.097681E-04  7.714352E+02
                          (62,16)  2.398958E-02  1.228010E-03  2.521759E-02  2.479611E-01
        37 0001-01-01 00:00:02.00  2.309689E-04  1.787871E-04  4.097561E-04  7.714352E+02
                          (62,16)  2.402895E-02  1.174926E-03  2.520387E-02  2.479723E-01
        38 0001-01-01 00:00:02.00  2.309088E-04  1.788356E-04  4.097444E-04  7.714352E+02
                          (62,16)  2.406914E-02  1.117584E-03  2.518672E-02  2.479971E-01
        39 0001-01-01 00:00:02.00  2.308468E-04  1.788862E-04  4.097331E-04  7.714352E+02
                          (62,16)  2.411054E-02  1.056429E-03  2.516697E-02  2.480368E-01
        40 0001-01-01 00:00:02.00  2.307878E-04  1.789343E-04  4.097221E-04  7.714352E+02
                          (62,16)  2.415351E-02  9.919528E-04  2.514546E-02  2.480918E-01
        41 0001-01-01 00:00:02.00  2.307365E-04  1.789750E-04  4.097115E-04  7.714352E+02
                          (62,16)  2.419833E-02  9.246949E-04  2.512303E-02  2.481622E-01
        42 0001-01-01 00:00:02.00  2.306972E-04  1.790041E-04  4.097014E-04  7.714352E+02
                          (62,16)  2.424525E-02  8.552271E-04  2.510048E-02  2.482474E-01
        43 0001-01-01 00:00:02.00  2.306740E-04  1.790176E-04  4.096916E-04  7.714352E+02
                          (62,16)  2.429443E-02  7.841456E-04  2.507857E-02  2.483463E-01
        44 0001-01-01 00:00:02.00  2.306702E-04  1.790120E-04  4.096822E-04  7.714352E+02
                          (63,16)  2.484254E-02  2.501846E-04  2.509273E-02  2.484573E-01
        45 0001-01-01 00:00:02.00  2.306887E-04  1.789845E-04  4.096732E-04  7.714352E+02
                          (63,16)  2.485265E-02  3.268321E-04  2.517948E-02  2.485781E-01
        46 0001-01-01 00:00:02.00  2.307319E-04  1.789326E-04  4.096645E-04  7.714352E+02
                          (63,16)  2.486301E-02  4.018835E-04  2.526489E-02  2.487061E-01
        47 0001-01-01 00:00:02.00  2.308012E-04  1.788549E-04  4.096561E-04  7.714352E+02
                          (63,16)  2.487336E-02  4.747086E-04  2.534806E-02  2.488381E-01
        48 0001-01-01 00:00:02.00  2.308976E-04  1.787504E-04  4.096480E-04  7.714352E+02
                          (63,16)  2.488340E-02  5.447176E-04  2.542812E-02  2.489704E-01
        49 0001-01-01 00:00:02.00  2.310212E-04  1.786190E-04  4.096402E-04  7.714352E+02
                          (63,16)  2.489281E-02  6.113721E-04  2.550418E-02  2.490993E-01
        50 0001-01-01 00:00:02.00  2.311718E-04  1.784609E-04  4.096326E-04  7.714352E+02
                          (63,16)  2.490125E-02  6.741936E-04  2.557544E-02  2.492204E-01
        51 0001-01-01 00:00:03.00  2.313481E-04  1.782771E-04  4.096252E-04  7.714352E+02
                          (63,16)  2.490835E-02  7.327725E-04  2.564112E-02  2.493294E-01
        52 0001-01-01 00:00:03.00  2.315487E-04  1.780693E-04  4.096180E-04  7.714352E+02
                          (63,16)  2.491374E-02  7.867741E-04  2.570051E-02  2.494217E-01
        53 0001-01-01 00:00:03.00  2.317715E-04  1.778393E-04  4.096108E-04  7.714352E+02
                          (63,16)  2.491702E-02  8.359441E-04  2.575296E-02  2.494928E-01
        54 0001-01-01 00:00:03.00  2.320141E-04  1.775896E-04  4.096037E-04  7.714352E+02
                          (63,16)  2.491780E-02  8.801122E-04  2.579792E-02  2.497667E-01
        55 0001-01-01 00:00:03.00  2.322737E-04  1.773229E-04  4.095966E-04  7.714352E+02
                          (63,16)  2.491570E-02  9.191938E-04  2.583489E-02  2.504380E-01
        56 0001-01-01 00:00:03.00  2.325473E-04  1.770423E-04  4.095896E-04  7.714352E+02
                          (63,17)  2.491032E-02  9.531902E-04  2.586351E-02  2.511038E-01
        57 0001-01-01 00:00:03.00  2.328317E-04  1.767508E-04  4.095824E-04  7.714352E+02
                          (63,17)  2.490128E-02  9.821864E-04  2.588347E-02  2.517587E-01
        58 0001-01-01 00:00:03.00  2.331234E-04  1.764518E-04  4.095752E-04  7.714352E+02
                          (63,17)  2.488822E-02  1.006348E-03  2.589457E-02  2.523970E-01
        59 0001-01-01 00:00:03.00  2.334191E-04  1.761487E-04  4.095678E-04  7.714352E+02
                          (63,16)  2.487079E-02  1.025917E-03  2.589671E-02  2.530129E-01
        60 0001-01-01 00:00:03.00  2.337153E-04  1.758450E-04  4.095603E-04  7.714352E+02
                          (63,17)  2.484867E-02  1.041203E-03  2.588988E-02  2.536009E-01
        61 0001-01-01 00:00:03.00  2.340085E-04  1.755441E-04  4.095526E-04  7.714352E+02
                          (63,16)  2.482157E-02  1.052576E-03  2.587415E-02  2.541557E-01
        62 0001-01-01 00:00:03.00  2.342953E-04  1.752494E-04  4.095447E-04  7.714352E+02
                          (63,16)  2.478922E-02  1.060461E-03  2.584968E-02  2.546718E-01
        63 0001-01-01 00:00:03.00  2.345724E-04  1.749641E-04  4.095365E-04  7.714352E+02
                          (63,16)  2.475139E-02  1.065320E-03  2.581671E-02  2.551444E-01
        64 0001-01-01 00:00:03.00  2.348366E-04  1.746914E-04  4.095280E-04  7.714352E+02
                          (62,16)  2.555437E-02  2.509251E-04  2.580530E-02  2.555689E-01
        65 0001-01-01 00:00:03.00  2.350849E-04  1.744344E-04  4.095193E-04  7.714352E+02
                          (62,16)  2.559136E-02  2.649419E-04  2.585630E-02  2.559411E-01
        66 0001-01-01 00:00:03.00  2.353146E-04  1.741957E-04  4.095103E-04  7.714352E+02
                          (62,16)  2.562267E-02  2.772162E-04  2.589989E-02  2.562570E-01
        67 0001-01-01 00:00:03.00  2.355230E-04  1.739780E-04  4.095010E-04  7.714352E+02
                          (62,16)  2.564796E-02  2.881788E-04  2.593614E-02  2.565133E-01
        68 0001-01-01 00:00:03.00  2.357080E-04  1.737834E-04  4.094914E-04  7.714352E+02
                          (62,16)  2.566692E-02  2.982620E-04  2.596519E-02  2.567072E-01
        69 0001-01-01 00:00:03.00  2.358676E-04  1.736139E-04  4.094815E-04  7.714352E+02
                          (62,16)  2.567932E-02  3.078898E-04  2.598721E-02  2.568362E-01
        70 0001-01-01 00:00:03.00  2.360004E-04  1.734710E-04  4.094714E-04  7.714352E+02
                          (62,16)  2.568495E-02  3.174699E-04  2.600242E-02  2.568984E-01
        71 0001-01-01 00:00:04.00  2.361052E-04  1.733559E-04  4.094610E-04  7.714352E+02
                          (62,16)  2.568366E-02  3.273851E-04  2.601104E-02  2.568926E-01
        72 0001-01-01 00:00:04.00  2.361813E-04  1.732691E-04  4.094504E-04  7.714352E+02
                          (62,16)  2.567537E-02  3.379864E-04  2.601335E-02  2.568178E-01
        73 0001-01-01 00:00:04.00  2.362287E-04  1.732109E-04  4.094396E-04  7.714352E+02
                          (62,16)  2.566003E-02  3.495869E-04  2.600961E-02  2.566737E-01
        74 0001-01-01 00:00:04.00  2.362475E-04  1.731811E-04  4.094286E-04  7.714352E+02
                          (62,16)  2.563765E-02  3.624569E-04  2.600010E-02  2.564604E-01
        75 0001-01-01 00:00:04.00  2.362387E-04  1.731788E-04  4.094175E-04  7.714352E+02
                          (62,16)  2.560827E-02  3.768203E-04  2.598510E-02  2.561786E-01
        76 0001-01-01 00:00:04.00  2.362034E-04  1.732028E-04  4.094062E-04  7.714352E+02
                          (61,16)  2.559635E-02  3.886703E-04  2.598502E-02  2.560666E-01
        77 0001-01-01 00:00:04.00  2.361435E-04  1.732513E-04  4.093948E-04  7.714352E+02
                          (61,16)  2.564441E-02  3.702243E-04  2.601463E-02  2.565332E-01
        78 0001-01-01 00:00:04.00  2.360611E-04  1.733223E-04  4.093834E-04  7.714352E+02
                          (61,16)  2.568511E-02  3.504684E-04  2.603558E-02  2.569271E-01
        79 0001-01-01 00:00:04.00  2.359589E-04  1.734130E-04  4.093719E-04  7.714352E+02
                          (61,16)  2.571847E-02  3.293210E-04  2.604779E-02  2.572485E-01
        80 0001-01-01 00:00:04.00  2.358399E-04  1.735205E-04  4.093604E-04  7.714352E+02
                          (61,16)  2.574454E-02  3.067389E-04  2.605128E-02  2.574979E-01
      WRT_HIS     - wrote history     fields (Index=1)   in record = 0000002
        81 0001-01-01 00:00:04.00  2.357073E-04  1.736416E-04  4.093489E-04  7.714352E+02
                          (61,16)  2.576343E-02  2.827156E-04  2.604615E-02  2.576765E-01
        82 0001-01-01 00:00:04.00  2.355648E-04  1.737727E-04  4.093375E-04  7.714352E+02
                          (61,16)  2.577530E-02  2.572791E-04  2.603258E-02  2.577860E-01
        83 0001-01-01 00:00:04.00  2.354161E-04  1.739100E-04  4.093261E-04  7.714352E+02
                          (61,16)  2.578032E-02  2.304882E-04  2.601081E-02  2.578281E-01
        84 0001-01-01 00:00:04.00  2.352652E-04  1.740496E-04  4.093148E-04  7.714352E+02
                          (61,16)  2.577873E-02  2.024285E-04  2.598116E-02  2.578053E-01
        85 0001-01-01 00:00:04.00  2.351159E-04  1.741876E-04  4.093036E-04  7.714352E+02
                          (61,16)  2.577077E-02  1.732079E-04  2.594397E-02  2.577200E-01
        86 0001-01-01 00:00:04.00  2.349724E-04  1.743201E-04  4.092924E-04  7.714352E+02
                          (61,16)  2.575671E-02  1.429513E-04  2.589966E-02  2.575751E-01
        87 0001-01-01 00:00:04.00  2.348384E-04  1.744430E-04  4.092814E-04  7.714352E+02
                          (61,16)  2.573685E-02  1.117958E-04  2.584865E-02  2.573735E-01
        88 0001-01-01 00:00:04.00  2.347177E-04  1.745527E-04  4.092705E-04  7.714352E+02
                          (61,16)  2.571150E-02  7.988505E-05  2.579139E-02  2.571184E-01
        89 0001-01-01 00:00:04.00  2.346140E-04  1.746456E-04  4.092596E-04  7.714352E+02
                          (60,16)  2.499882E-02  8.177150E-04  2.581654E-02  2.568131E-01
        90 0001-01-01 00:00:05.00  2.345305E-04  1.747184E-04  4.092489E-04  7.714352E+02
                          (60,16)  2.504528E-02  7.946784E-04  2.583996E-02  2.564607E-01
        91 0001-01-01 00:00:05.00  2.344703E-04  1.747680E-04  4.092382E-04  7.714352E+02
                          (60,16)  2.508581E-02  7.711901E-04  2.585700E-02  2.560647E-01
        92 0001-01-01 00:00:05.00  2.344359E-04  1.747918E-04  4.092277E-04  7.714352E+02
                          (60,16)  2.512069E-02  7.473246E-04  2.586801E-02  2.556284E-01
        93 0001-01-01 00:00:05.00  2.344296E-04  1.747876E-04  4.092172E-04  7.714352E+02
                          (60,16)  2.515021E-02  7.231477E-04  2.587336E-02  2.551550E-01
        94 0001-01-01 00:00:05.00  2.344531E-04  1.747536E-04  4.092067E-04  7.714352E+02
                          (60,16)  2.517469E-02  6.987137E-04  2.587340E-02  2.546479E-01
        95 0001-01-01 00:00:05.00  2.345076E-04  1.746887E-04  4.091963E-04  7.714352E+02
                          (60,16)  2.519442E-02  6.740626E-04  2.586849E-02  2.541103E-01
        96 0001-01-01 00:00:05.00  2.345940E-04  1.745920E-04  4.091859E-04  7.714352E+02
                          (60,16)  2.520974E-02  6.492187E-04  2.585896E-02  2.535452E-01
        97 0001-01-01 00:00:05.00  2.347122E-04  1.744634E-04  4.091756E-04  7.714352E+02
                          (60,16)  2.522097E-02  6.241886E-04  2.584515E-02  2.529559E-01
        98 0001-01-01 00:00:05.00  2.348620E-04  1.743033E-04  4.091653E-04  7.714352E+02
                          (60,16)  2.522841E-02  5.989616E-04  2.582737E-02  2.524649E-01
        99 0001-01-01 00:00:05.00  2.350424E-04  1.741126E-04  4.091550E-04  7.714352E+02
                          (60,16)  2.523240E-02  5.735089E-04  2.580591E-02  2.524870E-01
       100 0001-01-01 00:00:05.00  2.352518E-04  1.738928E-04  4.091446E-04  7.714352E+02
                          (60,16)  2.523325E-02  5.477850E-04  2.578104E-02  2.524787E-01
       101 0001-01-01 00:00:05.00  2.354883E-04  1.736460E-04  4.091343E-04  7.714352E+02
                          (60,16)  2.523127E-02  5.217286E-04  2.575299E-02  2.524430E-01
       102 0001-01-01 00:00:05.00  2.357492E-04  1.733747E-04  4.091240E-04  7.714352E+02
                          (60,16)  2.522674E-02  4.952651E-04  2.572201E-02  2.523829E-01
       103 0001-01-01 00:00:05.00  2.360317E-04  1.730819E-04  4.091136E-04  7.714352E+02
                          (60,16)  2.521997E-02  4.683082E-04  2.568828E-02  2.523012E-01
       104 0001-01-01 00:00:05.00  2.363322E-04  1.727710E-04  4.091032E-04  7.714352E+02
                          (60,17)  2.521124E-02  4.407631E-04  2.565200E-02  2.522007E-01
       105 0001-01-01 00:00:05.00  2.366472E-04  1.724457E-04  4.090928E-04  7.714352E+02
                          (60,16)  2.520080E-02  4.125292E-04  2.561333E-02  2.520840E-01
       106 0001-01-01 00:00:05.00  2.369725E-04  1.721099E-04  4.090824E-04  7.714352E+02
                          (60,16)  2.518892E-02  3.835034E-04  2.557242E-02  2.519537E-01
       107 0001-01-01 00:00:05.00  2.373042E-04  1.717678E-04  4.090720E-04  7.714352E+02
                          (60,16)  2.517583E-02  3.535829E-04  2.552942E-02  2.518122E-01
       108 0001-01-01 00:00:05.00  2.376379E-04  1.714237E-04  4.090616E-04  7.714352E+02
                          (60,17)  2.516177E-02  3.226691E-04  2.548443E-02  2.516617E-01
       109 0001-01-01 00:00:05.00  2.379694E-04  1.710817E-04  4.090511E-04  7.714352E+02
                          (60,17)  2.514693E-02  2.906695E-04  2.543760E-02  2.515043E-01
       110 0001-01-01 00:00:05.00  2.382946E-04  1.707460E-04  4.090407E-04  7.714352E+02
                          (60,17)  2.513151E-02  2.575015E-04  2.538901E-02  2.513421E-01
       111 0001-01-01 00:00:06.00  2.386095E-04  1.704207E-04  4.090302E-04  7.714352E+02
                          (60,17)  2.511567E-02  2.230945E-04  2.533877E-02  2.511767E-01
       112 0001-01-01 00:00:06.00  2.389103E-04  1.701095E-04  4.090198E-04  7.714352E+02
                          (59,16)  2.429674E-02  1.037810E-03  2.533455E-02  2.510098E-01
       113 0001-01-01 00:00:06.00  2.391935E-04  1.698159E-04  4.090093E-04  7.714352E+02
                          (59,16)  2.433324E-02  1.010766E-03  2.534401E-02  2.508428E-01
       114 0001-01-01 00:00:06.00  2.394560E-04  1.695430E-04  4.089989E-04  7.714352E+02
                          (59,16)  2.436928E-02  9.817507E-04  2.535103E-02  2.506768E-01
       115 0001-01-01 00:00:06.00  2.396950E-04  1.692936E-04  4.089885E-04  7.714352E+02
                          (59,16)  2.440506E-02  9.507167E-04  2.535578E-02  2.505129E-01
       116 0001-01-01 00:00:06.00  2.399082E-04  1.690700E-04  4.089782E-04  7.714352E+02
                          (59,16)  2.444077E-02  9.176358E-04  2.535840E-02  2.503517E-01
       117 0001-01-01 00:00:06.00  2.400937E-04  1.688742E-04  4.089679E-04  7.714352E+02
                          (59,16)  2.447657E-02  8.825019E-04  2.535907E-02  2.501938E-01
       118 0001-01-01 00:00:06.00  2.402500E-04  1.687076E-04  4.089576E-04  7.714352E+02
                          (59,16)  2.451260E-02  8.453311E-04  2.535793E-02  2.500395E-01
       119 0001-01-01 00:00:06.00  2.403762E-04  1.685712E-04  4.089474E-04  7.714352E+02
                          (59,16)  2.454898E-02  8.061624E-04  2.535514E-02  2.498887E-01
       120 0001-01-01 00:00:06.00  2.404715E-04  1.684657E-04  4.089372E-04  7.714352E+02
                          (59,16)  2.458580E-02  7.650571E-04  2.535086E-02  2.497412E-01
       121 0001-01-01 00:00:06.00  2.405359E-04  1.683912E-04  4.089271E-04  7.714352E+02
                          (59,16)  2.462314E-02  7.220985E-04  2.534524E-02  2.495965E-01
       122 0001-01-01 00:00:06.00  2.405694E-04  1.683477E-04  4.089171E-04  7.714352E+02
                          (59,16)  2.466103E-02  6.773908E-04  2.533842E-02  2.494539E-01
       123 0001-01-01 00:00:06.00  2.405727E-04  1.683344E-04  4.089071E-04  7.714352E+02
                          (59,16)  2.469949E-02  6.310576E-04  2.533055E-02  2.493124E-01
       124 0001-01-01 00:00:06.00  2.405466E-04  1.683506E-04  4.088972E-04  7.714352E+02
                          (59,16)  2.473851E-02  5.832409E-04  2.532175E-02  2.491708E-01
       125 0001-01-01 00:00:06.00  2.404923E-04  1.683950E-04  4.088874E-04  7.714352E+02
                          (59,16)  2.477805E-02  5.340987E-04  2.531215E-02  2.490275E-01
       126 0001-01-01 00:00:06.00  2.404114E-04  1.684662E-04  4.088776E-04  7.714352E+02
                          (60,16)  2.487712E-02  4.370665E-04  2.531419E-02  2.488810E-01
       127 0001-01-01 00:00:06.00  2.403055E-04  1.685624E-04  4.088680E-04  7.714352E+02
                          (60,16)  2.485957E-02  4.867645E-04  2.534634E-02  2.487293E-01
       128 0001-01-01 00:00:06.00  2.401767E-04  1.686816E-04  4.088584E-04  7.714352E+02
                          (60,16)  2.484105E-02  5.363247E-04  2.537738E-02  2.490812E-01
       129 0001-01-01 00:00:06.00  2.400272E-04  1.688217E-04  4.088488E-04  7.714352E+02
                          (60,16)  2.482136E-02  5.855634E-04  2.540692E-02  2.494681E-01
       130 0001-01-01 00:00:07.00  2.398592E-04  1.689801E-04  4.088394E-04  7.714352E+02
                          (60,16)  2.480026E-02  6.342985E-04  2.543456E-02  2.498564E-01
       131 0001-01-01 00:00:07.00  2.396755E-04  1.691544E-04  4.088300E-04  7.714352E+02
                          (60,17)  2.477753E-02  6.823508E-04  2.545988E-02  2.502444E-01
       132 0001-01-01 00:00:07.00  2.394788E-04  1.693419E-04  4.088207E-04  7.714352E+02
                          (60,16)  2.475292E-02  7.295470E-04  2.548247E-02  2.506297E-01
       133 0001-01-01 00:00:07.00  2.392718E-04  1.695396E-04  4.088114E-04  7.714352E+02
                          (60,16)  2.472620E-02  7.757215E-04  2.550192E-02  2.510102E-01
       134 0001-01-01 00:00:07.00  2.390575E-04  1.697446E-04  4.088022E-04  7.714352E+02
                          (60,16)  2.469712E-02  8.207189E-04  2.551784E-02  2.513833E-01
       135 0001-01-01 00:00:07.00  2.388390E-04  1.699540E-04  4.087930E-04  7.714352E+02
                          (60,16)  2.466544E-02  8.643953E-04  2.552983E-02  2.517461E-01
       136 0001-01-01 00:00:07.00  2.386191E-04  1.701647E-04  4.087838E-04  7.714352E+02
                          (60,17)  2.463092E-02  9.066209E-04  2.553755E-02  2.520959E-01
       137 0001-01-01 00:00:07.00  2.384009E-04  1.703738E-04  4.087747E-04  7.714352E+02
                          (60,16)  2.459335E-02  9.472806E-04  2.554063E-02  2.524297E-01
       138 0001-01-01 00:00:07.00  2.381873E-04  1.705782E-04  4.087655E-04  7.714352E+02
                          (60,16)  2.455249E-02  9.862757E-04  2.553877E-02  2.527444E-01
       139 0001-01-01 00:00:07.00  2.379811E-04  1.707753E-04  4.087564E-04  7.714352E+02
                          (60,16)  2.450815E-02  1.023525E-03  2.553168E-02  2.530368E-01
       140 0001-01-01 00:00:07.00  2.377850E-04  1.709624E-04  4.087473E-04  7.714352E+02
                          (59,16)  2.532829E-02  2.308451E-04  2.555913E-02  2.533039E-01
       141 0001-01-01 00:00:07.00  2.376013E-04  1.711369E-04  4.087382E-04  7.714352E+02
                          (59,16)  2.535126E-02  2.751697E-04  2.562643E-02  2.535426E-01
       142 0001-01-01 00:00:07.00  2.374322E-04  1.712968E-04  4.087290E-04  7.714352E+02
                          (59,17)  2.537092E-02  3.178292E-04  2.568875E-02  2.537499E-01
       143 0001-01-01 00:00:07.00  2.372796E-04  1.714402E-04  4.087199E-04  7.714352E+02
                          (59,16)  2.538700E-02  3.587471E-04  2.574574E-02  2.539228E-01
       144 0001-01-01 00:00:07.00  2.371452E-04  1.715655E-04  4.087106E-04  7.714352E+02
                          (59,16)  2.539921E-02  3.978663E-04  2.579708E-02  2.540587E-01
       145 0001-01-01 00:00:07.00  2.370300E-04  1.716714E-04  4.087014E-04  7.714352E+02
                          (59,16)  2.540734E-02  4.351490E-04  2.584249E-02  2.541548E-01
       146 0001-01-01 00:00:07.00  2.369349E-04  1.717573E-04  4.086921E-04  7.714352E+02
                          (59,16)  2.541114E-02  4.705765E-04  2.588172E-02  2.542088E-01
       147 0001-01-01 00:00:07.00  2.368603E-04  1.718225E-04  4.086828E-04  7.714352E+02
                          (59,16)  2.541041E-02  5.041490E-04  2.591456E-02  2.542186E-01
       148 0001-01-01 00:00:07.00  2.368064E-04  1.718670E-04  4.086735E-04  7.714352E+02
                          (59,16)  2.540498E-02  5.358844E-04  2.594087E-02  2.541821E-01
       149 0001-01-01 00:00:07.00  2.367729E-04  1.718912E-04  4.086640E-04  7.714352E+02
                          (59,16)  2.539469E-02  5.658173E-04  2.596051E-02  2.540978E-01
       150 0001-01-01 00:00:07.00  2.367591E-04  1.718955E-04  4.086546E-04  7.714352E+02
                          (59,16)  2.537941E-02  5.939980E-04  2.597341E-02  2.539641E-01
       151 0001-01-01 00:00:08.00  2.367640E-04  1.718811E-04  4.086451E-04  7.714352E+02
                          (59,16)  2.535904E-02  6.204904E-04  2.597953E-02  2.537802E-01
       152 0001-01-01 00:00:08.00  2.367864E-04  1.718491E-04  4.086355E-04  7.714352E+02
                          (59,16)  2.533351E-02  6.453707E-04  2.597888E-02  2.537379E-01
       153 0001-01-01 00:00:08.00  2.368248E-04  1.718011E-04  4.086259E-04  7.714352E+02
                          (59,16)  2.530276E-02  6.687258E-04  2.597149E-02  2.542629E-01
       154 0001-01-01 00:00:08.00  2.368774E-04  1.717388E-04  4.086162E-04  7.714352E+02
                          (59,16)  2.526679E-02  6.906508E-04  2.595744E-02  2.547384E-01
       155 0001-01-01 00:00:08.00  2.369424E-04  1.716641E-04  4.086065E-04  7.714352E+02
                          (59,16)  2.522561E-02  7.112476E-04  2.593686E-02  2.551624E-01
       156 0001-01-01 00:00:08.00  2.370179E-04  1.715789E-04  4.085968E-04  7.714352E+02
                          (59,16)  2.517924E-02  7.306229E-04  2.590987E-02  2.555333E-01
       157 0001-01-01 00:00:08.00  2.371016E-04  1.714854E-04  4.085870E-04  7.714352E+02
                          (59,16)  2.512776E-02  7.488865E-04  2.587665E-02  2.558498E-01
       158 0001-01-01 00:00:08.00  2.371915E-04  1.713856E-04  4.085771E-04  7.714352E+02
                          (59,16)  2.507124E-02  7.661498E-04  2.583739E-02  2.561109E-01
       159 0001-01-01 00:00:08.00  2.372855E-04  1.712817E-04  4.085672E-04  7.714352E+02
                          (59,16)  2.500979E-02  7.825241E-04  2.579232E-02  2.563162E-01
       160 0001-01-01 00:00:08.00  2.373816E-04  1.711757E-04  4.085573E-04  7.714352E+02
                          (59,16)  2.494354E-02  7.981198E-04  2.574166E-02  2.564654E-01
      WRT_HIS     - wrote history     fields (Index=1)   in record = 0000003
       161 0001-01-01 00:00:08.00  2.374778E-04  1.710695E-04  4.085473E-04  7.714352E+02
                          (58,16)  2.565572E-02  3.851309E-05  2.569424E-02  2.565584E-01
       162 0001-01-01 00:00:08.00  2.375724E-04  1.709649E-04  4.085373E-04  7.714352E+02
                          (58,16)  2.565945E-02  5.588999E-05  2.571534E-02  2.565958E-01
       163 0001-01-01 00:00:08.00  2.376637E-04  1.708636E-04  4.085273E-04  7.714352E+02
                          (58,16)  2.565759E-02  7.266901E-05  2.573026E-02  2.565781E-01
       164 0001-01-01 00:00:08.00  2.377502E-04  1.707669E-04  4.085172E-04  7.714352E+02
                          (58,16)  2.565023E-02  8.897580E-05  2.573920E-02  2.565064E-01
       165 0001-01-01 00:00:08.00  2.378308E-04  1.706762E-04  4.085071E-04  7.714352E+02
                          (58,16)  2.563749E-02  1.049354E-04  2.574243E-02  2.563817E-01
       166 0001-01-01 00:00:08.00  2.379045E-04  1.705925E-04  4.084969E-04  7.714352E+02
                          (58,16)  2.561952E-02  1.206713E-04  2.574019E-02  2.562055E-01
       167 0001-01-01 00:00:08.00  2.379703E-04  1.705164E-04  4.084868E-04  7.714352E+02
                          (58,16)  2.559648E-02  1.363052E-04  2.573279E-02  2.559794E-01
       168 0001-01-01 00:00:08.00  2.380279E-04  1.704487E-04  4.084766E-04  7.714352E+02
                          (57,16)  2.515692E-02  6.032109E-04  2.576013E-02  2.557050E-01
       169 0001-01-01 00:00:08.00  2.380769E-04  1.703894E-04  4.084664E-04  7.714352E+02
                          (57,16)  2.520288E-02  5.918835E-04  2.579476E-02  2.553843E-01
       170 0001-01-01 00:00:08.00  2.381173E-04  1.703388E-04  4.084561E-04  7.714352E+02
                          (57,16)  2.524317E-02  5.804583E-04  2.582363E-02  2.550192E-01
       171 0001-01-01 00:00:09.00  2.381493E-04  1.702965E-04  4.084458E-04  7.714352E+02
                          (57,16)  2.527795E-02  5.687888E-04  2.584674E-02  2.546117E-01
       172 0001-01-01 00:00:09.00  2.381732E-04  1.702623E-04  4.084355E-04  7.714352E+02
                          (57,16)  2.530738E-02  5.567305E-04  2.586411E-02  2.541639E-01
       173 0001-01-01 00:00:09.00  2.381896E-04  1.702356E-04  4.084252E-04  7.714352E+02
                          (57,16)  2.533165E-02  5.441414E-04  2.587579E-02  2.536781E-01
       174 0001-01-01 00:00:09.00  2.381992E-04  1.702157E-04  4.084149E-04  7.714352E+02
                          (57,16)  2.535098E-02  5.308831E-04  2.588186E-02  2.536545E-01
       175 0001-01-01 00:00:09.00  2.382029E-04  1.702016E-04  4.084045E-04  7.714352E+02
                          (57,16)  2.536558E-02  5.168209E-04  2.588240E-02  2.537889E-01
       176 0001-01-01 00:00:09.00  2.382016E-04  1.701926E-04  4.083941E-04  7.714352E+02
                          (57,16)  2.537568E-02  5.018245E-04  2.587751E-02  2.538788E-01
       177 0001-01-01 00:00:09.00  2.381963E-04  1.701874E-04  4.083837E-04  7.714352E+02
                          (57,16)  2.538153E-02  4.857684E-04  2.586730E-02  2.539265E-01
       178 0001-01-01 00:00:09.00  2.381882E-04  1.701851E-04  4.083732E-04  7.714352E+02
                          (57,16)  2.538336E-02  4.685324E-04  2.585190E-02  2.539344E-01
       179 0001-01-01 00:00:09.00  2.381783E-04  1.701845E-04  4.083628E-04  7.714352E+02
                          (57,16)  2.538143E-02  4.500020E-04  2.583143E-02  2.539049E-01
       180 0001-01-01 00:00:09.00  2.381676E-04  1.701846E-04  4.083523E-04  7.714352E+02
                          (57,16)  2.537596E-02  4.300692E-04  2.580603E-02  2.538404E-01
       181 0001-01-01 00:00:09.00  2.381574E-04  1.701844E-04  4.083418E-04  7.714352E+02
                          (57,16)  2.536720E-02  4.086328E-04  2.577583E-02  2.537433E-01
       182 0001-01-01 00:00:09.00  2.381486E-04  1.701827E-04  4.083312E-04  7.714352E+02
                          (57,16)  2.535537E-02  3.855996E-04  2.574097E-02  2.536160E-01
       183 0001-01-01 00:00:09.00  2.381421E-04  1.701785E-04  4.083207E-04  7.714352E+02
                          (57,16)  2.534072E-02  3.608849E-04  2.570161E-02  2.534607E-01
       184 0001-01-01 00:00:09.00  2.381390E-04  1.701711E-04  4.083101E-04  7.714352E+02
                          (57,16)  2.532346E-02  3.344139E-04  2.565788E-02  2.532798E-01
       185 0001-01-01 00:00:09.00  2.381401E-04  1.701595E-04  4.082996E-04  7.714352E+02
                          (57,16)  2.530381E-02  3.061227E-04  2.560993E-02  2.530754E-01
       186 0001-01-01 00:00:09.00  2.381462E-04  1.701428E-04  4.082890E-04  7.714352E+02
                          (57,16)  2.528196E-02  2.759592E-04  2.555792E-02  2.528497E-01
       187 0001-01-01 00:00:09.00  2.381580E-04  1.701204E-04  4.082784E-04  7.714352E+02
                          (56,16)  2.451479E-02  1.018665E-03  2.553346E-02  2.526048E-01
       188 0001-01-01 00:00:09.00  2.381763E-04  1.700915E-04  4.082679E-04  7.714352E+02
                          (56,16)  2.454713E-02  9.962798E-04  2.554341E-02  2.523427E-01
       189 0001-01-01 00:00:09.00  2.382017E-04  1.700556E-04  4.082573E-04  7.714352E+02
                          (56,16)  2.457734E-02  9.716685E-04  2.554901E-02  2.520653E-01
       190 0001-01-01 00:00:10.00  2.382347E-04  1.700121E-04  4.082468E-04  7.714352E+02
                          (56,16)  2.460569E-02  9.447925E-04  2.555049E-02  2.517745E-01
       191 0001-01-01 00:00:10.00  2.382759E-04  1.699604E-04  4.082363E-04  7.714352E+02
                          (56,16)  2.463242E-02  9.156293E-04  2.554805E-02  2.514719E-01
       192 0001-01-01 00:00:10.00  2.383255E-04  1.699003E-04  4.082258E-04  7.714352E+02
                          (56,16)  2.465774E-02  8.841737E-04  2.554191E-02  2.511593E-01
       193 0001-01-01 00:00:10.00  2.383840E-04  1.698313E-04  4.082153E-04  7.714352E+02
                          (56,16)  2.468186E-02  8.504385E-04  2.553230E-02  2.508381E-01
       194 0001-01-01 00:00:10.00  2.384514E-04  1.697535E-04  4.082049E-04  7.714352E+02
                          (56,16)  2.470499E-02  8.144555E-04  2.551945E-02  2.505097E-01
       195 0001-01-01 00:00:10.00  2.385278E-04  1.696667E-04  4.081946E-04  7.714352E+02
                          (56,16)  2.472729E-02  7.762760E-04  2.550357E-02  2.501755E-01
       196 0001-01-01 00:00:10.00  2.386130E-04  1.695712E-04  4.081842E-04  7.714352E+02
                          (56,16)  2.474893E-02  7.359713E-04  2.548490E-02  2.498366E-01
       197 0001-01-01 00:00:10.00  2.387067E-04  1.694672E-04  4.081740E-04  7.714352E+02
                          (56,16)  2.477003E-02  6.936330E-04  2.546367E-02  2.494939E-01
       198 0001-01-01 00:00:10.00  2.388083E-04  1.693554E-04  4.081637E-04  7.714352E+02
                          (56,16)  2.479074E-02  6.493728E-04  2.544011E-02  2.491482E-01
       199 0001-01-01 00:00:10.00  2.389172E-04  1.692364E-04  4.081536E-04  7.714352E+02
                          (56,16)  2.481115E-02  6.033226E-04  2.541447E-02  2.488002E-01
       200 0001-01-01 00:00:10.00  2.390322E-04  1.691113E-04  4.081435E-04  7.714352E+02
                          (56,16)  2.483135E-02  5.556333E-04  2.538699E-02  2.484737E-01
       201 0001-01-01 00:00:10.00  2.391523E-04  1.689812E-04  4.081334E-04  7.714352E+02
                          (56,16)  2.485141E-02  5.064742E-04  2.535788E-02  2.486487E-01
       202 0001-01-01 00:00:10.00  2.392760E-04  1.688475E-04  4.081235E-04  7.714352E+02
                          (56,16)  2.487138E-02  4.560313E-04  2.532741E-02  2.488244E-01
       203 0001-01-01 00:00:10.00  2.394018E-04  1.687117E-04  4.081136E-04  7.714352E+02
                          (56,16)  2.489127E-02  4.045059E-04  2.529578E-02  2.490016E-01
       204 0001-01-01 00:00:10.00  2.395281E-04  1.685756E-04  4.081037E-04  7.714352E+02
                          (56,16)  2.491111E-02  3.521121E-04  2.526323E-02  2.491803E-01
       205 0001-01-01 00:00:10.00  2.396530E-04  1.684410E-04  4.080940E-04  7.714352E+02
                          (57,16)  2.464624E-02  5.985699E-04  2.524481E-02  2.493607E-01
       206 0001-01-01 00:00:10.00  2.397748E-04  1.683095E-04  4.080843E-04  7.714352E+02
                          (57,16)  2.460645E-02  6.507166E-04  2.525717E-02  2.495425E-01
       207 0001-01-01 00:00:10.00  2.398915E-04  1.681832E-04  4.080747E-04  7.714352E+02
                          (57,16)  2.456596E-02  7.019875E-04  2.526795E-02  2.497253E-01
       208 0001-01-01 00:00:10.00  2.400015E-04  1.680636E-04  4.080652E-04  7.714352E+02
                          (57,16)  2.452467E-02  7.521537E-04  2.527682E-02  2.499084E-01
       209 0001-01-01 00:00:10.00  2.401032E-04  1.679525E-04  4.080557E-04  7.714352E+02
                          (57,16)  2.448247E-02  8.009976E-04  2.528347E-02  2.500908E-01
       210 0001-01-01 00:00:10.00  2.401950E-04  1.678513E-04  4.080463E-04  7.714352E+02
                          (57,16)  2.443923E-02  8.483158E-04  2.528755E-02  2.502714E-01
       211 0001-01-01 00:00:11.00  2.402758E-04  1.677612E-04  4.080370E-04  7.714352E+02
                          (57,16)  2.439482E-02  8.939229E-04  2.528874E-02  2.504488E-01
       212 0001-01-01 00:00:11.00  2.403444E-04  1.676833E-04  4.080277E-04  7.714352E+02
                          (57,16)  2.434909E-02  9.376532E-04  2.528675E-02  2.506212E-01
       213 0001-01-01 00:00:11.00  2.404002E-04  1.676183E-04  4.080185E-04  7.714352E+02
                          (57,16)  2.430189E-02  9.793639E-04  2.528125E-02  2.507870E-01
       214 0001-01-01 00:00:11.00  2.404426E-04  1.675668E-04  4.080093E-04  7.714352E+02
                          (57,16)  2.425305E-02  1.018936E-03  2.527199E-02  2.509440E-01
       215 0001-01-01 00:00:11.00  2.404714E-04  1.675288E-04  4.080002E-04  7.714352E+02
                          (56,16)  2.510716E-02  2.158266E-04  2.532298E-02  2.510903E-01
       216 0001-01-01 00:00:11.00  2.404866E-04  1.675044E-04  4.079911E-04  7.714352E+02
                          (56,16)  2.511955E-02  2.611826E-04  2.538073E-02  2.512235E-01
       217 0001-01-01 00:00:11.00  2.404886E-04  1.674934E-04  4.079820E-04  7.714352E+02
                          (56,16)  2.513024E-02  3.047892E-04  2.543503E-02  2.513413E-01
       218 0001-01-01 00:00:11.00  2.404776E-04  1.674953E-04  4.079729E-04  7.714352E+02
                          (56,16)  2.513900E-02  3.465592E-04  2.548556E-02  2.514413E-01
       219 0001-01-01 00:00:11.00  2.404543E-04  1.675096E-04  4.079638E-04  7.714352E+02
                          (56,16)  2.514560E-02  3.864315E-04  2.553203E-02  2.515210E-01
       220 0001-01-01 00:00:11.00  2.404192E-04  1.675355E-04  4.079547E-04  7.714352E+02
                          (56,16)  2.514983E-02  4.243705E-04  2.557420E-02  2.515782E-01
       221 0001-01-01 00:00:11.00  2.403732E-04  1.675724E-04  4.079456E-04  7.714352E+02
                          (56,16)  2.515147E-02  4.603668E-04  2.561184E-02  2.516104E-01
       222 0001-01-01 00:00:11.00  2.403168E-04  1.676196E-04  4.079365E-04  7.714352E+02
                          (56,16)  2.515030E-02  4.944354E-04  2.564473E-02  2.516153E-01
       223 0001-01-01 00:00:11.00  2.402509E-04  1.676765E-04  4.079273E-04  7.714352E+02
                          (56,16)  2.514610E-02  5.266152E-04  2.567272E-02  2.515907E-01
       224 0001-01-01 00:00:11.00  2.401759E-04  1.677422E-04  4.079181E-04  7.714352E+02
                          (56,16)  2.513869E-02  5.569667E-04  2.569566E-02  2.515346E-01
       225 0001-01-01 00:00:11.00  2.400924E-04  1.678164E-04  4.079088E-04  7.714352E+02
                          (56,16)  2.512787E-02  5.855703E-04  2.571344E-02  2.514449E-01
       226 0001-01-01 00:00:11.00  2.400011E-04  1.678983E-04  4.078995E-04  7.714352E+02
                          (56,16)  2.511348E-02  6.125238E-04  2.572601E-02  2.513199E-01
       227 0001-01-01 00:00:11.00  2.399024E-04  1.679877E-04  4.078901E-04  7.714352E+02
                          (56,17)  2.509536E-02  6.379396E-04  2.573330E-02  2.514709E-01
       228 0001-01-01 00:00:11.00  2.397966E-04  1.680840E-04  4.078806E-04  7.714352E+02
                          (56,16)  2.507337E-02  6.619419E-04  2.573531E-02  2.519789E-01
       229 0001-01-01 00:00:11.00  2.396843E-04  1.681868E-04  4.078711E-04  7.714352E+02
                          (56,16)  2.504738E-02  6.846640E-04  2.573204E-02  2.524531E-01
       230 0001-01-01 00:00:12.00  2.395660E-04  1.682955E-04  4.078615E-04  7.714352E+02
                          (56,16)  2.501729E-02  7.062449E-04  2.572353E-02  2.528911E-01
       231 0001-01-01 00:00:12.00  2.394422E-04  1.684096E-04  4.078519E-04  7.714352E+02
                          (56,16)  2.498302E-02  7.268267E-04  2.570985E-02  2.532909E-01
       232 0001-01-01 00:00:12.00  2.393137E-04  1.685284E-04  4.078421E-04  7.714352E+02
                          (56,16)  2.494450E-02  7.465515E-04  2.569105E-02  2.536508E-01
       233 0001-01-01 00:00:12.00  2.391812E-04  1.686511E-04  4.078324E-04  7.714352E+02
                          (56,16)  2.490169E-02  7.655588E-04  2.566725E-02  2.539692E-01
       234 0001-01-01 00:00:12.00  2.390458E-04  1.687767E-04  4.078225E-04  7.714352E+02
                          (56,16)  2.485456E-02  7.839829E-04  2.563854E-02  2.542447E-01
       235 0001-01-01 00:00:12.00  2.389086E-04  1.689040E-04  4.078126E-04  7.714352E+02
                          (56,16)  2.480310E-02  8.019508E-04  2.560505E-02  2.544762E-01
       236 0001-01-01 00:00:12.00  2.387710E-04  1.690317E-04  4.078027E-04  7.714352E+02
                          (56,16)  2.474732E-02  8.195804E-04  2.556690E-02  2.546629E-01
       237 0001-01-01 00:00:12.00  2.386344E-04  1.691583E-04  4.077927E-04  7.714352E+02
                          (55,16)  2.548010E-02  8.599953E-05  2.556610E-02  2.548041E-01
       238 0001-01-01 00:00:12.00  2.385005E-04  1.692822E-04  4.077827E-04  7.714352E+02
                          (55,16)  2.548948E-02  1.076384E-04  2.559712E-02  2.548993E-01
       239 0001-01-01 00:00:12.00  2.383709E-04  1.694017E-04  4.077726E-04  7.714352E+02
                          (55,16)  2.549415E-02  1.290710E-04  2.562322E-02  2.549485E-01
       240 0001-01-01 00:00:12.00  2.382474E-04  1.695151E-04  4.077624E-04  7.714352E+02
                          (55,16)  2.549412E-02  1.503927E-04  2.564451E-02  2.549515E-01
      WRT_HIS     - wrote history     fields (Index=1)   in record = 0000004
       241 0001-01-01 00:00:12.00  2.381316E-04  1.696207E-04  4.077523E-04  7.714352E+02
                          (55,17)  2.548939E-02  1.716882E-04  2.566108E-02  2.549086E-01
       242 0001-01-01 00:00:12.00  2.380251E-04  1.697169E-04  4.077421E-04  7.714352E+02
                          (55,17)  2.548002E-02  1.930317E-04  2.567305E-02  2.548201E-01
       243 0001-01-01 00:00:12.00  2.379295E-04  1.698024E-04  4.077318E-04  7.714352E+02
                          (55,17)  2.546604E-02  2.144857E-04  2.568052E-02  2.546866E-01
       244 0001-01-01 00:00:12.00  2.378459E-04  1.698757E-04  4.077216E-04  7.714352E+02
                          (55,17)  2.544752E-02  2.361018E-04  2.568362E-02  2.545086E-01
       245 0001-01-01 00:00:12.00  2.377754E-04  1.699360E-04  4.077113E-04  7.714352E+02
                          (55,17)  2.542454E-02  2.579206E-04  2.568246E-02  2.542869E-01
       246 0001-01-01 00:00:12.00  2.377187E-04  1.699824E-04  4.077010E-04  7.714352E+02
                          (55,17)  2.539718E-02  2.799725E-04  2.567716E-02  2.540224E-01
       247 0001-01-01 00:00:12.00  2.376762E-04  1.700145E-04  4.076907E-04  7.714352E+02
                          (54,16)  2.522091E-02  4.524269E-04  2.567334E-02  2.537161E-01
       248 0001-01-01 00:00:12.00  2.376482E-04  1.700323E-04  4.076804E-04  7.714352E+02
                          (54,16)  2.525863E-02  4.330148E-04  2.569164E-02  2.533690E-01
       249 0001-01-01 00:00:12.00  2.376344E-04  1.700358E-04  4.076701E-04  7.714352E+02
                          (54,16)  2.529182E-02  4.132240E-04  2.570505E-02  2.530213E-01
       250 0001-01-01 00:00:12.00  2.376345E-04  1.700254E-04  4.076599E-04  7.714352E+02
                          (54,16)  2.532058E-02  3.930131E-04  2.571359E-02  2.532964E-01
       251 0001-01-01 00:00:13.00  2.376478E-04  1.700017E-04  4.076496E-04  7.714352E+02
                          (54,16)  2.534497E-02  3.723484E-04  2.571732E-02  2.535287E-01
       252 0001-01-01 00:00:13.00  2.376736E-04  1.699657E-04  4.076393E-04  7.714352E+02
                          (54,16)  2.536510E-02  3.512031E-04  2.571630E-02  2.537191E-01
       253 0001-01-01 00:00:13.00  2.377109E-04  1.699181E-04  4.076290E-04  7.714352E+02
                          (54,16)  2.538105E-02  3.295562E-04  2.571061E-02  2.538686E-01
       254 0001-01-01 00:00:13.00  2.377588E-04  1.698600E-04  4.076188E-04  7.714352E+02
                          (54,16)  2.539294E-02  3.073919E-04  2.570033E-02  2.539782E-01
       255 0001-01-01 00:00:13.00  2.378163E-04  1.697923E-04  4.076086E-04  7.714352E+02
                          (54,16)  2.540087E-02  2.846983E-04  2.568557E-02  2.540490E-01
       256 0001-01-01 00:00:13.00  2.378823E-04  1.697162E-04  4.075984E-04  7.714352E+02
                          (54,16)  2.540494E-02  2.614666E-04  2.566640E-02  2.540820E-01
       257 0001-01-01 00:00:13.00  2.379559E-04  1.696323E-04  4.075882E-04  7.714352E+02
                          (54,17)  2.540526E-02  2.376900E-04  2.564295E-02  2.540784E-01
       258 0001-01-01 00:00:13.00  2.380365E-04  1.695416E-04  4.075781E-04  7.714352E+02
                          (54,17)  2.540195E-02  2.133631E-04  2.561531E-02  2.540394E-01
       259 0001-01-01 00:00:13.00  2.381233E-04  1.694446E-04  4.075680E-04  7.714352E+02
                          (54,17)  2.539510E-02  1.884808E-04  2.558359E-02  2.539659E-01
       260 0001-01-01 00:00:13.00  2.382158E-04  1.693421E-04  4.075578E-04  7.714352E+02
                          (54,16)  2.538484E-02  1.630380E-04  2.554788E-02  2.538591E-01
       261 0001-01-01 00:00:13.00  2.383135E-04  1.692342E-04  4.075477E-04  7.714352E+02
                          (54,16)  2.537127E-02  1.370287E-04  2.550830E-02  2.537201E-01
       262 0001-01-01 00:00:13.00  2.384161E-04  1.691215E-04  4.075377E-04  7.714352E+02
                          (53,17)  2.463525E-02  8.484346E-04  2.548368E-02  2.535501E-01
       263 0001-01-01 00:00:13.00  2.385234E-04  1.690042E-04  4.075276E-04  7.714352E+02
                          (53,16)  2.468036E-02  8.287139E-04  2.550907E-02  2.533501E-01
       264 0001-01-01 00:00:13.00  2.386351E-04  1.688824E-04  4.075175E-04  7.714352E+02
                          (53,17)  2.472226E-02  8.080636E-04  2.553032E-02  2.531213E-01
       265 0001-01-01 00:00:13.00  2.387511E-04  1.687564E-04  4.075074E-04  7.714352E+02
                          (53,17)  2.476106E-02  7.864631E-04  2.554752E-02  2.528646E-01
       266 0001-01-01 00:00:13.00  2.388709E-04  1.686265E-04  4.074974E-04  7.714352E+02
                          (53,17)  2.479685E-02  7.638936E-04  2.556075E-02  2.525813E-01
       267 0001-01-01 00:00:13.00  2.389943E-04  1.684930E-04  4.074873E-04  7.714352E+02
                          (53,16)  2.482974E-02  7.403382E-04  2.557008E-02  2.522723E-01
       268 0001-01-01 00:00:13.00  2.391209E-04  1.683564E-04  4.074772E-04  7.714352E+02
                          (53,16)  2.485980E-02  7.157814E-04  2.557559E-02  2.519388E-01
       269 0001-01-01 00:00:13.00  2.392499E-04  1.682172E-04  4.074671E-04  7.714352E+02
                          (53,17)  2.488715E-02  6.902099E-04  2.557736E-02  2.515818E-01
       270 0001-01-01 00:00:13.00  2.393809E-04  1.680762E-04  4.074570E-04  7.714352E+02
                          (53,17)  2.491186E-02  6.636119E-04  2.557547E-02  2.512025E-01
       271 0001-01-01 00:00:14.00  2.395128E-04  1.679341E-04  4.074469E-04  7.714352E+02
                          (53,16)  2.493403E-02  6.359776E-04  2.557001E-02  2.508018E-01
       272 0001-01-01 00:00:14.00  2.396447E-04  1.677921E-04  4.074368E-04  7.714352E+02
                          (53,16)  2.495376E-02  6.072991E-04  2.556106E-02  2.503808E-01
       273 0001-01-01 00:00:14.00  2.397755E-04  1.676512E-04  4.074267E-04  7.714352E+02
                          (53,17)  2.497113E-02  5.775710E-04  2.554870E-02  2.499407E-01
       274 0001-01-01 00:00:14.00  2.399041E-04  1.675124E-04  4.074165E-04  7.714352E+02
                          (53,16)  2.498623E-02  5.467897E-04  2.553302E-02  2.500120E-01
       275 0001-01-01 00:00:14.00  2.400293E-04  1.673771E-04  4.074063E-04  7.714352E+02
                          (53,17)  2.499916E-02  5.149543E-04  2.551411E-02  2.501231E-01
       276 0001-01-01 00:00:14.00  2.401499E-04  1.672463E-04  4.073962E-04  7.714352E+02
                          (53,16)  2.501000E-02  4.820667E-04  2.549206E-02  2.502142E-01
       277 0001-01-01 00:00:14.00  2.402647E-04  1.671213E-04  4.073860E-04  7.714352E+02
                          (53,17)  2.501885E-02  4.481314E-04  2.546698E-02  2.502862E-01
       278 0001-01-01 00:00:14.00  2.403728E-04  1.670030E-04  4.073758E-04  7.714352E+02
                          (53,17)  2.502579E-02  4.131565E-04  2.543894E-02  2.503401E-01
       279 0001-01-01 00:00:14.00  2.404731E-04  1.668925E-04  4.073656E-04  7.714352E+02
                          (53,17)  2.503091E-02  3.771537E-04  2.540806E-02  2.503769E-01
       280 0001-01-01 00:00:14.00  2.405649E-04  1.667904E-04  4.073554E-04  7.714352E+02
                          (53,17)  2.503431E-02  3.401384E-04  2.537444E-02  2.503976E-01
       281 0001-01-01 00:00:14.00  2.406477E-04  1.666975E-04  4.073452E-04  7.714352E+02
                          (53,17)  2.503606E-02  3.021311E-04  2.533819E-02  2.504030E-01
       282 0001-01-01 00:00:14.00  2.407209E-04  1.666141E-04  4.073349E-04  7.714352E+02
                          (53,17)  2.503625E-02  2.631571E-04  2.529940E-02  2.503942E-01
       283 0001-01-01 00:00:14.00  2.407843E-04  1.665404E-04  4.073247E-04  7.714352E+02
                          (53,17)  2.503496E-02  2.232476E-04  2.525821E-02  2.503720E-01
       284 0001-01-01 00:00:14.00  2.408380E-04  1.664765E-04  4.073145E-04  7.714352E+02
                          (53,17)  2.503227E-02  1.824400E-04  2.521471E-02  2.503374E-01
       285 0001-01-01 00:00:14.00  2.408819E-04  1.664223E-04  4.073042E-04  7.714352E+02
                          (53,17)  2.502826E-02  1.407789E-04  2.516904E-02  2.502911E-01
       286 0001-01-01 00:00:14.00  2.409165E-04  1.663775E-04  4.072940E-04  7.714352E+02
                          (53,17)  2.502300E-02  9.831641E-05  2.512131E-02  2.502339E-01
       287 0001-01-01 00:00:14.00  2.409420E-04  1.663417E-04  4.072838E-04  7.714352E+02
                          (52,17)  2.426135E-02  8.477447E-04  2.510909E-02  2.501667E-01
       288 0001-01-01 00:00:14.00  2.409590E-04  1.663145E-04  4.072735E-04  7.714352E+02
                          (52,17)  2.431003E-02  8.107557E-04  2.512078E-02  2.500899E-01
       289 0001-01-01 00:00:14.00  2.409681E-04  1.662952E-04  4.072633E-04  7.714352E+02
                          (52,17)  2.435778E-02  7.727460E-04  2.513052E-02  2.500043E-01
       290 0001-01-01 00:00:15.00  2.409698E-04  1.662833E-04  4.072530E-04  7.714352E+02
                          (52,17)  2.440465E-02  7.337720E-04  2.513842E-02  2.499104E-01
       291 0001-01-01 00:00:15.00  2.409646E-04  1.662782E-04  4.072428E-04  7.714352E+02
                          (52,17)  2.445071E-02  6.938957E-04  2.514460E-02  2.498084E-01
       292 0001-01-01 00:00:15.00  2.409533E-04  1.662793E-04  4.072326E-04  7.714352E+02
                          (52,17)  2.449599E-02  6.531854E-04  2.514918E-02  2.496986E-01
       293 0001-01-01 00:00:15.00  2.409363E-04  1.662860E-04  4.072224E-04  7.714352E+02
                          (53,17)  2.495553E-02  2.151636E-04  2.517069E-02  2.495812E-01
       294 0001-01-01 00:00:15.00  2.409143E-04  1.662979E-04  4.072122E-04  7.714352E+02
                          (53,16)  2.494189E-02  2.611086E-04  2.520300E-02  2.494562E-01
       295 0001-01-01 00:00:15.00  2.408875E-04  1.663145E-04  4.072020E-04  7.714352E+02
                          (53,16)  2.492727E-02  3.069891E-04  2.523426E-02  2.493234E-01
       296 0001-01-01 00:00:15.00  2.408566E-04  1.663353E-04  4.071919E-04  7.714352E+02
                          (53,16)  2.491163E-02  3.526679E-04  2.526430E-02  2.491823E-01
       297 0001-01-01 00:00:15.00  2.408219E-04  1.663599E-04  4.071818E-04  7.714352E+02
                          (53,16)  2.489492E-02  3.980029E-04  2.529292E-02  2.490327E-01
       298 0001-01-01 00:00:15.00  2.407837E-04  1.663880E-04  4.071717E-04  7.714352E+02
                          (53,16)  2.487709E-02  4.428485E-04  2.531994E-02  2.488736E-01
       299 0001-01-01 00:00:15.00  2.407423E-04  1.664193E-04  4.071617E-04  7.714352E+02
                          (53,16)  2.485806E-02  4.870569E-04  2.534512E-02  2.487044E-01
       300 0001-01-01 00:00:15.00  2.406981E-04  1.664535E-04  4.071516E-04  7.714352E+02
                          (53,17)  2.483774E-02  5.304804E-04  2.536822E-02  2.485240E-01
       301 0001-01-01 00:00:15.00  2.406514E-04  1.664903E-04  4.071417E-04  7.714352E+02
                          (53,16)  2.481603E-02  5.729730E-04  2.538900E-02  2.487781E-01
       302 0001-01-01 00:00:15.00  2.406024E-04  1.665294E-04  4.071317E-04  7.714352E+02
                          (53,16)  2.479281E-02  6.143929E-04  2.540720E-02  2.491445E-01
       303 0001-01-01 00:00:15.00  2.405513E-04  1.665705E-04  4.071218E-04  7.714352E+02
                          (53,16)  2.476794E-02  6.546042E-04  2.542254E-02  2.495027E-01
       304 0001-01-01 00:00:15.00  2.404986E-04  1.666134E-04  4.071120E-04  7.714352E+02
                          (53,16)  2.474128E-02  6.934792E-04  2.543476E-02  2.498516E-01
       305 0001-01-01 00:00:15.00  2.404444E-04  1.666578E-04  4.071021E-04  7.714352E+02
                          (53,16)  2.471268E-02  7.309003E-04  2.544358E-02  2.501897E-01
       306 0001-01-01 00:00:15.00  2.403889E-04  1.667034E-04  4.070924E-04  7.714352E+02
                          (53,17)  2.468199E-02  7.667623E-04  2.544875E-02  2.505156E-01
       307 0001-01-01 00:00:15.00  2.403326E-04  1.667501E-04  4.070826E-04  7.714352E+02
                          (53,16)  2.464902E-02  8.009737E-04  2.545000E-02  2.508275E-01
       308 0001-01-01 00:00:15.00  2.402755E-04  1.667974E-04  4.070729E-04  7.714352E+02
                          (53,17)  2.461362E-02  8.334586E-04  2.544708E-02  2.511236E-01
       309 0001-01-01 00:00:15.00  2.402179E-04  1.668453E-04  4.070632E-04  7.714352E+02
                          (53,16)  2.457561E-02  8.641581E-04  2.543977E-02  2.514019E-01
       310 0001-01-01 00:00:15.00  2.401600E-04  1.668935E-04  4.070536E-04  7.714352E+02
                          (53,17)  2.453483E-02  8.930311E-04  2.542786E-02  2.516602E-01
       311 0001-01-01 00:00:16.00  2.401020E-04  1.669419E-04  4.070439E-04  7.714352E+02
                          (53,17)  2.449110E-02  9.200556E-04  2.541115E-02  2.518964E-01
       312 0001-01-01 00:00:16.00  2.400441E-04  1.669902E-04  4.070343E-04  7.714352E+02
                          (53,17)  2.444426E-02  9.452289E-04  2.538949E-02  2.521082E-01
       313 0001-01-01 00:00:16.00  2.399863E-04  1.670384E-04  4.070247E-04  7.714352E+02
                          (52,17)  2.522760E-02  2.088312E-04  2.543643E-02  2.522933E-01
       314 0001-01-01 00:00:16.00  2.399289E-04  1.670863E-04  4.070151E-04  7.714352E+02
                          (52,17)  2.524261E-02  2.402352E-04  2.548285E-02  2.524494E-01
       315 0001-01-01 00:00:16.00  2.398718E-04  1.671337E-04  4.070056E-04  7.714352E+02
                          (52,17)  2.525441E-02  2.700972E-04  2.552451E-02  2.525742E-01
       316 0001-01-01 00:00:16.00  2.398152E-04  1.671807E-04  4.069960E-04  7.714352E+02
                          (52,17)  2.526278E-02  2.984131E-04  2.556119E-02  2.526657E-01
       317 0001-01-01 00:00:16.00  2.397592E-04  1.672271E-04  4.069864E-04  7.714352E+02
                          (52,17)  2.526753E-02  3.251984E-04  2.559272E-02  2.527217E-01
       318 0001-01-01 00:00:16.00  2.397039E-04  1.672729E-04  4.069768E-04  7.714352E+02
                          (52,17)  2.526846E-02  3.504878E-04  2.561894E-02  2.527403E-01
       319 0001-01-01 00:00:16.00  2.396493E-04  1.673179E-04  4.069672E-04  7.714352E+02
                          (52,17)  2.526540E-02  3.743346E-04  2.563973E-02  2.527196E-01
       320 0001-01-01 00:00:16.00  2.395956E-04  1.673619E-04  4.069575E-04  7.714352E+02
                          (52,17)  2.525820E-02  3.968098E-04  2.565501E-02  2.526581E-01
      WRT_HIS     - wrote history     fields (Index=1)   in record = 0000005
       321 0001-01-01 00:00:16.00  2.395428E-04  1.674050E-04  4.069479E-04  7.714352E+02
                          (52,17)  2.524672E-02  4.180012E-04  2.566472E-02  2.525543E-01
       322 0001-01-01 00:00:16.00  2.394912E-04  1.674470E-04  4.069382E-04  7.714352E+02
                          (52,17)  2.523084E-02  4.380112E-04  2.566885E-02  2.524072E-01
       323 0001-01-01 00:00:16.00  2.394408E-04  1.674877E-04  4.069285E-04  7.714352E+02
                          (52,17)  2.521047E-02  4.569556E-04  2.566742E-02  2.522156E-01
       324 0001-01-01 00:00:16.00  2.393918E-04  1.675269E-04  4.069187E-04  7.714352E+02
                          (52,17)  2.518554E-02  4.749612E-04  2.566050E-02  2.519790E-01
       325 0001-01-01 00:00:16.00  2.393444E-04  1.675645E-04  4.069089E-04  7.714352E+02
                          (52,17)  2.515601E-02  4.921637E-04  2.564817E-02  2.522563E-01
       326 0001-01-01 00:00:16.00  2.392988E-04  1.676002E-04  4.068990E-04  7.714352E+02
                          (52,17)  2.512185E-02  5.087054E-04  2.563056E-02  2.526521E-01
       327 0001-01-01 00:00:16.00  2.392552E-04  1.676340E-04  4.068891E-04  7.714352E+02
                          (52,17)  2.508307E-02  5.247328E-04  2.560781E-02  2.530021E-01
       328 0001-01-01 00:00:16.00  2.392137E-04  1.676654E-04  4.068792E-04  7.714352E+02
                          (52,17)  2.503970E-02  5.403942E-04  2.558010E-02  2.533051E-01
       329 0001-01-01 00:00:16.00  2.391747E-04  1.676945E-04  4.068692E-04  7.714352E+02
                          (52,16)  2.499179E-02  5.558372E-04  2.554763E-02  2.535604E-01
       330 0001-01-01 00:00:17.00  2.391384E-04  1.677208E-04  4.068591E-04  7.714352E+02
                          (51,16)  2.537511E-02  1.466855E-04  2.552180E-02  2.537672E-01
       331 0001-01-01 00:00:17.00  2.391049E-04  1.677441E-04  4.068490E-04  7.714352E+02
                          (51,16)  2.539139E-02  1.294185E-04  2.552080E-02  2.539254E-01
       332 0001-01-01 00:00:17.00  2.390746E-04  1.677643E-04  4.068389E-04  7.714352E+02
                          (51,17)  2.540271E-02  1.122650E-04  2.551497E-02  2.540349E-01
       333 0001-01-01 00:00:17.00  2.390478E-04  1.677809E-04  4.068287E-04  7.714352E+02
                          (51,17)  2.540911E-02  9.508232E-05  2.550419E-02  2.540960E-01
       334 0001-01-01 00:00:17.00  2.390247E-04  1.677937E-04  4.068185E-04  7.714352E+02
                          (51,17)  2.541064E-02  7.773050E-05  2.548837E-02  2.541092E-01
       335 0001-01-01 00:00:17.00  2.390057E-04  1.678025E-04  4.068082E-04  7.714352E+02
                          (51,17)  2.540740E-02  6.007418E-05  2.546748E-02  2.540755E-01
       336 0001-01-01 00:00:17.00  2.389911E-04  1.678068E-04  4.067978E-04  7.714352E+02
                          (51,16)  2.539948E-02  4.198465E-05  2.544147E-02  2.539957E-01
       337 0001-01-01 00:00:17.00  2.389812E-04  1.678063E-04  4.067875E-04  7.714352E+02
                          (50,16)  2.472384E-02  7.082152E-04  2.543206E-02  2.538712E-01
       338 0001-01-01 00:00:17.00  2.389764E-04  1.678007E-04  4.067771E-04  7.714352E+02
                          (50,16)  2.477826E-02  6.944411E-04  2.547270E-02  2.537035E-01
       339 0001-01-01 00:00:17.00  2.389770E-04  1.677896E-04  4.067666E-04  7.714352E+02
                          (50,16)  2.482781E-02  6.801883E-04  2.550800E-02  2.534941E-01
       340 0001-01-01 00:00:17.00  2.389836E-04  1.677726E-04  4.067561E-04  7.714352E+02
                          (50,16)  2.487258E-02  6.653254E-04  2.553791E-02  2.532447E-01
       341 0001-01-01 00:00:17.00  2.389963E-04  1.677494E-04  4.067456E-04  7.714352E+02
                          (50,16)  2.491270E-02  6.497283E-04  2.556243E-02  2.529573E-01
       342 0001-01-01 00:00:17.00  2.390155E-04  1.677196E-04  4.067351E-04  7.714352E+02
                          (50,16)  2.494829E-02  6.332822E-04  2.558158E-02  2.526338E-01
       343 0001-01-01 00:00:17.00  2.390416E-04  1.676830E-04  4.067245E-04  7.714352E+02
                          (50,16)  2.497953E-02  6.158824E-04  2.559541E-02  2.522760E-01
       344 0001-01-01 00:00:17.00  2.390747E-04  1.676393E-04  4.067140E-04  7.714352E+02
                          (50,16)  2.500659E-02  5.974354E-04  2.560402E-02  2.518861E-01
       345 0001-01-01 00:00:17.00  2.391150E-04  1.675883E-04  4.067034E-04  7.714352E+02
                          (50,16)  2.502965E-02  5.778597E-04  2.560751E-02  2.514661E-01
       346 0001-01-01 00:00:17.00  2.391627E-04  1.675301E-04  4.066928E-04  7.714352E+02
                          (50,16)  2.504893E-02  5.570863E-04  2.560602E-02  2.510180E-01
       347 0001-01-01 00:00:17.00  2.392176E-04  1.674645E-04  4.066821E-04  7.714352E+02
                          (50,16)  2.506463E-02  5.350588E-04  2.559969E-02  2.507910E-01
       348 0001-01-01 00:00:17.00  2.392798E-04  1.673917E-04  4.066715E-04  7.714352E+02
                          (50,17)  2.507696E-02  5.117336E-04  2.558870E-02  2.508997E-01
       349 0001-01-01 00:00:17.00  2.393490E-04  1.673119E-04  4.066609E-04  7.714352E+02
                          (50,16)  2.508614E-02  4.870799E-04  2.557322E-02  2.509773E-01
       350 0001-01-01 00:00:17.00  2.394248E-04  1.672254E-04  4.066502E-04  7.714352E+02
                          (50,17)  2.509237E-02  4.610795E-04  2.555345E-02  2.510258E-01
       351 0001-01-01 00:00:18.00  2.395069E-04  1.671327E-04  4.066396E-04  7.714352E+02
                          (50,16)  2.509586E-02  4.337265E-04  2.552958E-02  2.510475E-01
       352 0001-01-01 00:00:18.00  2.395947E-04  1.670343E-04  4.066290E-04  7.714352E+02
                          (50,16)  2.509680E-02  4.050271E-04  2.550183E-02  2.510443E-01
       353 0001-01-01 00:00:18.00  2.396876E-04  1.669307E-04  4.066183E-04  7.714352E+02
                          (50,16)  2.509539E-02  3.749987E-04  2.547039E-02  2.510181E-01
       354 0001-01-01 00:00:18.00  2.397849E-04  1.668228E-04  4.066077E-04  7.714352E+02
                          (50,16)  2.509180E-02  3.436700E-04  2.543547E-02  2.509710E-01
       355 0001-01-01 00:00:18.00  2.398858E-04  1.667113E-04  4.065971E-04  7.714352E+02
                          (50,16)  2.508619E-02  3.110801E-04  2.539727E-02  2.509046E-01
       356 0001-01-01 00:00:18.00  2.399897E-04  1.665968E-04  4.065865E-04  7.714352E+02
                          (50,16)  2.507873E-02  2.772782E-04  2.535601E-02  2.508205E-01
       357 0001-01-01 00:00:18.00  2.400956E-04  1.664804E-04  4.065759E-04  7.714352E+02
                          (50,16)  2.506955E-02  2.423224E-04  2.531187E-02  2.507203E-01
       358 0001-01-01 00:00:18.00  2.402027E-04  1.663627E-04  4.065654E-04  7.714352E+02
                          (50,16)  2.505877E-02  2.062796E-04  2.526505E-02  2.506053E-01
       359 0001-01-01 00:00:18.00  2.403103E-04  1.662445E-04  4.065548E-04  7.714352E+02
                          (50,16)  2.504651E-02  1.692244E-04  2.521573E-02  2.504766E-01
       360 0001-01-01 00:00:18.00  2.404176E-04  1.661267E-04  4.065443E-04  7.714352E+02
                          (49,16)  2.429871E-02  8.843664E-04  2.518308E-02  2.503354E-01
       361 0001-01-01 00:00:18.00  2.405239E-04  1.660099E-04  4.065338E-04  7.714352E+02
                          (49,16)  2.433801E-02  8.541944E-04  2.519220E-02  2.501826E-01
       362 0001-01-01 00:00:18.00  2.406285E-04  1.658948E-04  4.065233E-04  7.714352E+02
                          (49,16)  2.437614E-02  8.226303E-04  2.519877E-02  2.500188E-01
       363 0001-01-01 00:00:18.00  2.407307E-04  1.657821E-04  4.065128E-04  7.714352E+02
                          (49,16)  2.441325E-02  7.897362E-04  2.520299E-02  2.498447E-01
       364 0001-01-01 00:00:18.00  2.408301E-04  1.656722E-04  4.065023E-04  7.714352E+02
                          (49,16)  2.444944E-02  7.555827E-04  2.520502E-02  2.496608E-01
       365 0001-01-01 00:00:18.00  2.409260E-04  1.655659E-04  4.064919E-04  7.714352E+02
                          (49,16)  2.448478E-02  7.202488E-04  2.520503E-02  2.494673E-01
       366 0001-01-01 00:00:18.00  2.410181E-04  1.654634E-04  4.064815E-04  7.714352E+02
                          (49,16)  2.451934E-02  6.838207E-04  2.520316E-02  2.492644E-01
       367 0001-01-01 00:00:18.00  2.411057E-04  1.653653E-04  4.064711E-04  7.714352E+02
                          (49,16)  2.455317E-02  6.463913E-04  2.519956E-02  2.490521E-01
       368 0001-01-01 00:00:18.00  2.411886E-04  1.652721E-04  4.064607E-04  7.714352E+02
                          (49,16)  2.458628E-02  6.080596E-04  2.519434E-02  2.488305E-01
       369 0001-01-01 00:00:18.00  2.412662E-04  1.651841E-04  4.064503E-04  7.714352E+02
                          (49,16)  2.461870E-02  5.689297E-04  2.518763E-02  2.485993E-01
       370 0001-01-01 00:00:18.00  2.413381E-04  1.651018E-04  4.064400E-04  7.714352E+02
                          (49,16)  2.465040E-02  5.291093E-04  2.517951E-02  2.483583E-01
       371 0001-01-01 00:00:19.00  2.414039E-04  1.650257E-04  4.064296E-04  7.714352E+02
                          (49,16)  2.468138E-02  4.887093E-04  2.517008E-02  2.481071E-01
       372 0001-01-01 00:00:19.00  2.414632E-04  1.649561E-04  4.064193E-04  7.714352E+02
                          (49,16)  2.471157E-02  4.478419E-04  2.515942E-02  2.478452E-01
       373 0001-01-01 00:00:19.00  2.415155E-04  1.648935E-04  4.064090E-04  7.714352E+02
                          (50,16)  2.474752E-02  4.034860E-04  2.515101E-02  2.475722E-01
       374 0001-01-01 00:00:19.00  2.415604E-04  1.648383E-04  4.063987E-04  7.714352E+02
                          (50,16)  2.471714E-02  4.443307E-04  2.516147E-02  2.477759E-01
       375 0001-01-01 00:00:19.00  2.415974E-04  1.647910E-04  4.063884E-04  7.714352E+02
                          (50,16)  2.468537E-02  4.846897E-04  2.517006E-02  2.480353E-01
       376 0001-01-01 00:00:19.00  2.416263E-04  1.647519E-04  4.063781E-04  7.714352E+02
                          (50,16)  2.465215E-02  5.244909E-04  2.517664E-02  2.482861E-01
       377 0001-01-01 00:00:19.00  2.416465E-04  1.647214E-04  4.063679E-04  7.714352E+02
                          (50,17)  2.461743E-02  5.636670E-04  2.518109E-02  2.485273E-01
       378 0001-01-01 00:00:19.00  2.416579E-04  1.646998E-04  4.063577E-04  7.714352E+02
                          (50,17)  2.458113E-02  6.021558E-04  2.518329E-02  2.487581E-01
       379 0001-01-01 00:00:19.00  2.416602E-04  1.646873E-04  4.063475E-04  7.714352E+02
                          (50,17)  2.454321E-02  6.398997E-04  2.518311E-02  2.489774E-01
       380 0001-01-01 00:00:19.00  2.416533E-04  1.646840E-04  4.063373E-04  7.714352E+02
                          (50,17)  2.450360E-02  6.768459E-04  2.518045E-02  2.491843E-01
       381 0001-01-01 00:00:19.00  2.416371E-04  1.646900E-04  4.063271E-04  7.714352E+02
                          (50,17)  2.446224E-02  7.129460E-04  2.517518E-02  2.493777E-01
       382 0001-01-01 00:00:19.00  2.416117E-04  1.647052E-04  4.063169E-04  7.714352E+02
                          (50,17)  2.441905E-02  7.481558E-04  2.516721E-02  2.495566E-01
       383 0001-01-01 00:00:19.00  2.415773E-04  1.647295E-04  4.063068E-04  7.714352E+02
                          (50,17)  2.437399E-02  7.824353E-04  2.515643E-02  2.497199E-01
       384 0001-01-01 00:00:19.00  2.415341E-04  1.647625E-04  4.062966E-04  7.714352E+02
                          (50,17)  2.432699E-02  8.157482E-04  2.514274E-02  2.498665E-01
       385 0001-01-01 00:00:19.00  2.414827E-04  1.648038E-04  4.062865E-04  7.714352E+02
                          (50,17)  2.427799E-02  8.480623E-04  2.512605E-02  2.499953E-01
       386 0001-01-01 00:00:19.00  2.414235E-04  1.648529E-04  4.062764E-04  7.714352E+02
                          (49,17)  2.501000E-02  1.165947E-04  2.512660E-02  2.501054E-01
       387 0001-01-01 00:00:19.00  2.413570E-04  1.649093E-04  4.062663E-04  7.714352E+02
                          (49,17)  2.501862E-02  1.532358E-04  2.517186E-02  2.501958E-01
       388 0001-01-01 00:00:19.00  2.412841E-04  1.649721E-04  4.062562E-04  7.714352E+02
                          (49,17)  2.502503E-02  1.891189E-04  2.521415E-02  2.502654E-01
       389 0001-01-01 00:00:19.00  2.412053E-04  1.650408E-04  4.062461E-04  7.714352E+02
                          (49,17)  2.502913E-02  2.242192E-04  2.525335E-02  2.503133E-01
       390 0001-01-01 00:00:20.00  2.411216E-04  1.651145E-04  4.062360E-04  7.714352E+02
                          (49,17)  2.503085E-02  2.585158E-04  2.528937E-02  2.503386E-01
[...]
                          (67,17)  2.346422E-02  2.562508E-04  2.372047E-02  2.346842E-01
      2300 0001-01-01 00:01:55.00  2.267399E-04  1.601611E-04  3.869010E-04  7.714352E+02
                          (67,17)  2.344188E-02  2.803149E-04  2.372219E-02  2.344693E-01
      2301 0001-01-01 00:01:55.00  2.266609E-04  1.602300E-04  3.868908E-04  7.714352E+02
                          (67,17)  2.341739E-02  3.044067E-04  2.372180E-02  2.342337E-01
      2302 0001-01-01 00:01:55.00  2.265929E-04  1.602878E-04  3.868806E-04  7.714352E+02
                          (67,17)  2.339079E-02  3.285484E-04  2.371934E-02  2.342530E-01
      2303 0001-01-01 00:01:55.00  2.265363E-04  1.603341E-04  3.868704E-04  7.714352E+02
                          (67,17)  2.336209E-02  3.527548E-04  2.371485E-02  2.344779E-01
      2304 0001-01-01 00:01:55.00  2.264914E-04  1.603689E-04  3.868603E-04  7.714352E+02
                          (67,17)  2.333131E-02  3.770329E-04  2.370835E-02  2.346792E-01
      2305 0001-01-01 00:01:55.00  2.264580E-04  1.603921E-04  3.868501E-04  7.714352E+02
                          (67,17)  2.329847E-02  4.013811E-04  2.369985E-02  2.348569E-01
      2306 0001-01-01 00:01:55.00  2.264361E-04  1.604038E-04  3.868399E-04  7.714352E+02
                          (67,17)  2.326358E-02  4.257883E-04  2.368936E-02  2.350113E-01
      2307 0001-01-01 00:01:55.00  2.264252E-04  1.604046E-04  3.868297E-04  7.714352E+02
                          (67,17)  2.322663E-02  4.502345E-04  2.367687E-02  2.351426E-01
      2308 0001-01-01 00:01:55.00  2.264248E-04  1.603948E-04  3.868196E-04  7.714352E+02
                          (67,17)  2.318765E-02  4.746903E-04  2.366234E-02  2.352510E-01
      2309 0001-01-01 00:01:55.00  2.264344E-04  1.603751E-04  3.868095E-04  7.714352E+02
                          (67,17)  2.314662E-02  4.991170E-04  2.364574E-02  2.353368E-01
      2310 0001-01-01 00:01:56.00  2.264532E-04  1.603462E-04  3.867994E-04  7.714352E+02
                          (67,17)  2.310355E-02  5.234678E-04  2.362702E-02  2.354005E-01
      2311 0001-01-01 00:01:56.00  2.264803E-04  1.603091E-04  3.867894E-04  7.714352E+02
                          (67,17)  2.305844E-02  5.476879E-04  2.360613E-02  2.354422E-01
      2312 0001-01-01 00:01:56.00  2.265148E-04  1.602646E-04  3.867794E-04  7.714352E+02
                          (67,17)  2.301128E-02  5.717158E-04  2.358300E-02  2.354624E-01
      2313 0001-01-01 00:01:56.00  2.265558E-04  1.602137E-04  3.867695E-04  7.714352E+02
                          (66,16)  2.354612E-02  1.229496E-05  2.355841E-02  2.354613E-01
      2314 0001-01-01 00:01:56.00  2.266021E-04  1.601575E-04  3.867596E-04  7.714352E+02
                          (66,16)  2.354386E-02  3.758863E-05  2.358145E-02  2.354393E-01
      2315 0001-01-01 00:01:56.00  2.266528E-04  1.600969E-04  3.867498E-04  7.714352E+02
                          (66,16)  2.353946E-02  6.258426E-05  2.360205E-02  2.353966E-01
      2316 0001-01-01 00:01:56.00  2.267068E-04  1.600332E-04  3.867400E-04  7.714352E+02
                          (66,16)  2.353294E-02  8.721250E-05  2.362015E-02  2.353334E-01
      2317 0001-01-01 00:01:56.00  2.267630E-04  1.599673E-04  3.867303E-04  7.714352E+02
                          (66,16)  2.352431E-02  1.114078E-04  2.363572E-02  2.352499E-01
      2318 0001-01-01 00:01:56.00  2.268205E-04  1.599002E-04  3.867207E-04  7.714352E+02
                          (66,16)  2.351360E-02  1.351103E-04  2.364871E-02  2.351463E-01
      2319 0001-01-01 00:01:56.00  2.268781E-04  1.598330E-04  3.867111E-04  7.714352E+02
                          (66,16)  2.350081E-02  1.582676E-04  2.365908E-02  2.350226E-01
      2320 0001-01-01 00:01:56.00  2.269349E-04  1.597666E-04  3.867015E-04  7.714352E+02
                          (66,16)  2.348595E-02  1.808361E-04  2.366679E-02  2.348789E-01
      WRT_HIS     - wrote history     fields (Index=1)   in record = 0000030
      2321 0001-01-01 00:01:56.00  2.269900E-04  1.597020E-04  3.866920E-04  7.714352E+02
                          (66,16)  2.346903E-02  2.027827E-04  2.367182E-02  2.347151E-01
      2322 0001-01-01 00:01:56.00  2.270426E-04  1.596400E-04  3.866825E-04  7.714352E+02
                          (66,16)  2.345005E-02  2.240859E-04  2.367414E-02  2.345313E-01
      2323 0001-01-01 00:01:56.00  2.270918E-04  1.595813E-04  3.866731E-04  7.714352E+02
                          (66,16)  2.342901E-02  2.447365E-04  2.367375E-02  2.343274E-01
      2324 0001-01-01 00:01:56.00  2.271370E-04  1.595267E-04  3.866637E-04  7.714352E+02
                          (66,16)  2.340590E-02  2.647380E-04  2.367064E-02  2.341035E-01
      2325 0001-01-01 00:01:56.00  2.271776E-04  1.594768E-04  3.866543E-04  7.714352E+02
                          (66,16)  2.338073E-02  2.841077E-04  2.366484E-02  2.338593E-01
      2326 0001-01-01 00:01:56.00  2.272129E-04  1.594321E-04  3.866450E-04  7.714352E+02
                          (66,16)  2.335348E-02  3.028757E-04  2.365636E-02  2.337570E-01
      2327 0001-01-01 00:01:56.00  2.272425E-04  1.593932E-04  3.866356E-04  7.714352E+02
                          (65,16)  2.339178E-02  2.676437E-04  2.365942E-02  2.339641E-01
      2328 0001-01-01 00:01:56.00  2.272660E-04  1.593603E-04  3.866263E-04  7.714352E+02
                          (65,16)  2.341127E-02  2.496611E-04  2.366093E-02  2.341522E-01
      2329 0001-01-01 00:01:56.00  2.272832E-04  1.593337E-04  3.866170E-04  7.714352E+02
                          (65,16)  2.342877E-02  2.318542E-04  2.366062E-02  2.343211E-01
      2330 0001-01-01 00:01:57.00  2.272939E-04  1.593137E-04  3.866076E-04  7.714352E+02
                          (65,16)  2.344426E-02  2.141581E-04  2.365842E-02  2.344704E-01
      2331 0001-01-01 00:01:57.00  2.272980E-04  1.593002E-04  3.865982E-04  7.714352E+02
                          (65,16)  2.345771E-02  1.964983E-04  2.365420E-02  2.345998E-01
      2332 0001-01-01 00:01:57.00  2.272955E-04  1.592933E-04  3.865888E-04  7.714352E+02
                          (65,16)  2.346907E-02  1.787921E-04  2.364786E-02  2.347089E-01
      2333 0001-01-01 00:01:57.00  2.272865E-04  1.592929E-04  3.865794E-04  7.714352E+02
                          (65,16)  2.347832E-02  1.609508E-04  2.363927E-02  2.347974E-01
      2334 0001-01-01 00:01:57.00  2.272712E-04  1.592988E-04  3.865699E-04  7.714352E+02
                          (65,16)  2.348543E-02  1.428813E-04  2.362831E-02  2.348650E-01
      2335 0001-01-01 00:01:57.00  2.272498E-04  1.593107E-04  3.865604E-04  7.714352E+02
                          (65,16)  2.349036E-02  1.244881E-04  2.361485E-02  2.349113E-01
      2336 0001-01-01 00:01:57.00  2.272226E-04  1.593282E-04  3.865509E-04  7.714352E+02
                          (65,16)  2.349310E-02  1.056757E-04  2.359877E-02  2.349362E-01
      2337 0001-01-01 00:01:57.00  2.271902E-04  1.593510E-04  3.865413E-04  7.714352E+02
                          (65,16)  2.349361E-02  8.635078E-05  2.357996E-02  2.349393E-01
      2338 0001-01-01 00:01:57.00  2.271531E-04  1.593786E-04  3.865317E-04  7.714352E+02
                          (65,16)  2.349188E-02  6.642423E-05  2.355831E-02  2.349207E-01
      2339 0001-01-01 00:01:57.00  2.271117E-04  1.594102E-04  3.865220E-04  7.714352E+02
                          (64,17)  2.295890E-02  6.041380E-04  2.356304E-02  2.348802E-01
      2340 0001-01-01 00:01:57.00  2.270668E-04  1.594454E-04  3.865122E-04  7.714352E+02
                          (64,17)  2.300119E-02  5.855867E-04  2.358677E-02  2.348179E-01
      2341 0001-01-01 00:01:57.00  2.270190E-04  1.594834E-04  3.865025E-04  7.714352E+02
                          (64,17)  2.304139E-02  5.662716E-04  2.360766E-02  2.347338E-01
      2342 0001-01-01 00:01:57.00  2.269691E-04  1.595235E-04  3.864927E-04  7.714352E+02
                          (64,17)  2.307952E-02  5.461168E-04  2.362564E-02  2.346281E-01
      2343 0001-01-01 00:01:57.00  2.269179E-04  1.595649E-04  3.864828E-04  7.714352E+02
                          (64,17)  2.311557E-02  5.250542E-04  2.364063E-02  2.345010E-01
      2344 0001-01-01 00:01:57.00  2.268660E-04  1.596069E-04  3.864729E-04  7.714352E+02
                          (64,17)  2.314957E-02  5.030251E-04  2.365260E-02  2.343527E-01
      2345 0001-01-01 00:01:57.00  2.268145E-04  1.596485E-04  3.864630E-04  7.714352E+02
                          (64,17)  2.318153E-02  4.799830E-04  2.366152E-02  2.341838E-01
      2346 0001-01-01 00:01:57.00  2.267639E-04  1.596891E-04  3.864530E-04  7.714352E+02
                          (64,17)  2.321148E-02  4.558944E-04  2.366737E-02  2.339945E-01
      2347 0001-01-01 00:01:57.00  2.267152E-04  1.597278E-04  3.864431E-04  7.714352E+02
                          (64,17)  2.323943E-02  4.307410E-04  2.367017E-02  2.337854E-01
      2348 0001-01-01 00:01:57.00  2.266691E-04  1.597640E-04  3.864331E-04  7.714352E+02
                          (64,17)  2.326542E-02  4.045201E-04  2.366994E-02  2.335569E-01
      2349 0001-01-01 00:01:57.00  2.266263E-04  1.597968E-04  3.864231E-04  7.714352E+02
                          (64,17)  2.328949E-02  3.772452E-04  2.366674E-02  2.333095E-01
      2350 0001-01-01 00:01:57.00  2.265875E-04  1.598257E-04  3.864131E-04  7.714352E+02
                          (64,16)  2.331166E-02  3.489466E-04  2.366061E-02  2.331887E-01
      2351 0001-01-01 00:01:58.00  2.265531E-04  1.598501E-04  3.864032E-04  7.714352E+02
                          (64,16)  2.333197E-02  3.196705E-04  2.365164E-02  2.333803E-01
      2352 0001-01-01 00:01:58.00  2.265237E-04  1.598695E-04  3.863932E-04  7.714352E+02
                          (64,16)  2.335045E-02  2.894789E-04  2.363993E-02  2.335543E-01
      2353 0001-01-01 00:01:58.00  2.264997E-04  1.598835E-04  3.863832E-04  7.714352E+02
                          (64,16)  2.336713E-02  2.584482E-04  2.362558E-02  2.337112E-01
      2354 0001-01-01 00:01:58.00  2.264814E-04  1.598919E-04  3.863733E-04  7.714352E+02
                          (64,16)  2.338205E-02  2.266685E-04  2.360872E-02  2.338514E-01
      2355 0001-01-01 00:01:58.00  2.264688E-04  1.598946E-04  3.863634E-04  7.714352E+02
                          (64,16)  2.339523E-02  1.942413E-04  2.358947E-02  2.339752E-01
      2356 0001-01-01 00:01:58.00  2.264622E-04  1.598914E-04  3.863536E-04  7.714352E+02
                          (64,16)  2.340669E-02  1.612786E-04  2.356797E-02  2.340830E-01
      2357 0001-01-01 00:01:58.00  2.264613E-04  1.598825E-04  3.863437E-04  7.714352E+02
                          (64,16)  2.341646E-02  1.279007E-04  2.354436E-02  2.341750E-01
      2358 0001-01-01 00:01:58.00  2.264660E-04  1.598679E-04  3.863340E-04  7.714352E+02
                          (64,16)  2.342455E-02  9.423430E-05  2.351878E-02  2.342514E-01
      2359 0001-01-01 00:01:58.00  2.264761E-04  1.598481E-04  3.863242E-04  7.714352E+02
                          (65,17)  2.297290E-02  5.307811E-04  2.350368E-02  2.343125E-01
      2360 0001-01-01 00:01:58.00  2.264912E-04  1.598234E-04  3.863146E-04  7.714352E+02
                          (65,17)  2.292847E-02  5.629708E-04  2.349144E-02  2.343582E-01
      2361 0001-01-01 00:01:58.00  2.265107E-04  1.597942E-04  3.863049E-04  7.714352E+02
                          (65,17)  2.288251E-02  5.945899E-04  2.347710E-02  2.343886E-01
      2362 0001-01-01 00:01:58.00  2.265343E-04  1.597611E-04  3.862953E-04  7.714352E+02
                          (64,16)  2.344029E-02  4.066474E-05  2.348096E-02  2.344036E-01
      2363 0001-01-01 00:01:58.00  2.265612E-04  1.597246E-04  3.862858E-04  7.714352E+02
                          (64,16)  2.344007E-02  7.378271E-05  2.351385E-02  2.344032E-01
      2364 0001-01-01 00:01:58.00  2.265908E-04  1.596855E-04  3.862763E-04  7.714352E+02
                          (64,16)  2.343816E-02  1.064014E-04  2.354456E-02  2.343871E-01
      2365 0001-01-01 00:01:58.00  2.266226E-04  1.596443E-04  3.862669E-04  7.714352E+02
                          (64,16)  2.343454E-02  1.384020E-04  2.357294E-02  2.343551E-01
      2366 0001-01-01 00:01:58.00  2.266557E-04  1.596018E-04  3.862575E-04  7.714352E+02
                          (64,16)  2.342919E-02  1.696742E-04  2.359887E-02  2.343068E-01
      2367 0001-01-01 00:01:58.00  2.266895E-04  1.595586E-04  3.862481E-04  7.714352E+02
                          (64,17)  2.342208E-02  2.001168E-04  2.362220E-02  2.342418E-01
      2368 0001-01-01 00:01:58.00  2.267233E-04  1.595155E-04  3.862388E-04  7.714352E+02
                          (64,17)  2.341316E-02  2.296401E-04  2.364280E-02  2.341597E-01
      2369 0001-01-01 00:01:58.00  2.267565E-04  1.594730E-04  3.862295E-04  7.714352E+02
                          (64,17)  2.340240E-02  2.581661E-04  2.366057E-02  2.340599E-01
      2370 0001-01-01 00:01:59.00  2.267883E-04  1.594319E-04  3.862202E-04  7.714352E+02
                          (64,17)  2.338975E-02  2.856308E-04  2.367538E-02  2.339420E-01
      2371 0001-01-01 00:01:59.00  2.268182E-04  1.593928E-04  3.862110E-04  7.714352E+02
                          (64,17)  2.337516E-02  3.119841E-04  2.368715E-02  2.338052E-01
      2372 0001-01-01 00:01:59.00  2.268455E-04  1.593562E-04  3.862017E-04  7.714352E+02
                          (64,17)  2.335858E-02  3.371911E-04  2.369577E-02  2.336491E-01
      2373 0001-01-01 00:01:59.00  2.268696E-04  1.593228E-04  3.861924E-04  7.714352E+02
                          (64,17)  2.333995E-02  3.612329E-04  2.370118E-02  2.334730E-01
      2374 0001-01-01 00:01:59.00  2.268900E-04  1.592931E-04  3.861831E-04  7.714352E+02
                          (64,17)  2.331922E-02  3.841066E-04  2.370333E-02  2.333408E-01
      2375 0001-01-01 00:01:59.00  2.269062E-04  1.592676E-04  3.861738E-04  7.714352E+02
                          (64,16)  2.329633E-02  4.058254E-04  2.370216E-02  2.336141E-01
      2376 0001-01-01 00:01:59.00  2.269177E-04  1.592468E-04  3.861645E-04  7.714352E+02
                          (64,16)  2.327123E-02  4.264187E-04  2.369765E-02  2.338658E-01
      2377 0001-01-01 00:01:59.00  2.269241E-04  1.592310E-04  3.861551E-04  7.714352E+02
                          (64,16)  2.324387E-02  4.459314E-04  2.368980E-02  2.340953E-01
      2378 0001-01-01 00:01:59.00  2.269249E-04  1.592208E-04  3.861457E-04  7.714352E+02
                          (64,16)  2.321421E-02  4.644231E-04  2.367863E-02  2.343019E-01
      2379 0001-01-01 00:01:59.00  2.269198E-04  1.592165E-04  3.861362E-04  7.714352E+02
                          (64,16)  2.318220E-02  4.819674E-04  2.366416E-02  2.344851E-01
      2380 0001-01-01 00:01:59.00  2.269085E-04  1.592182E-04  3.861267E-04  7.714352E+02
                          (64,16)  2.314781E-02  4.986500E-04  2.364646E-02  2.346444E-01
      2381 0001-01-01 00:01:59.00  2.268907E-04  1.592264E-04  3.861171E-04  7.714352E+02
                          (64,16)  2.311101E-02  5.145673E-04  2.362558E-02  2.347795E-01
      2382 0001-01-01 00:01:59.00  2.268664E-04  1.592410E-04  3.861074E-04  7.714352E+02
                          (64,16)  2.307180E-02  5.298247E-04  2.360162E-02  2.348900E-01
      2383 0001-01-01 00:01:59.00  2.268354E-04  1.592623E-04  3.860977E-04  7.714352E+02
                          (64,16)  2.303015E-02  5.445340E-04  2.357469E-02  2.349757E-01
      2384 0001-01-01 00:01:59.00  2.267979E-04  1.592900E-04  3.860879E-04  7.714352E+02
                          (64,16)  2.298608E-02  5.588117E-04  2.354490E-02  2.350363E-01
      2385 0001-01-01 00:01:59.00  2.267539E-04  1.593241E-04  3.860780E-04  7.714352E+02
                          (63,16)  2.350714E-02  2.445388E-05  2.353160E-02  2.350717E-01
      2386 0001-01-01 00:01:59.00  2.267037E-04  1.593643E-04  3.860680E-04  7.714352E+02
                          (63,16)  2.350813E-02  4.041443E-05  2.354854E-02  2.350820E-01
      2387 0001-01-01 00:01:59.00  2.266477E-04  1.594102E-04  3.860579E-04  7.714352E+02
                          (63,16)  2.350655E-02  5.618120E-05  2.356273E-02  2.350671E-01
      2388 0001-01-01 00:01:59.00  2.265865E-04  1.594613E-04  3.860478E-04  7.714352E+02
                          (63,16)  2.350243E-02  7.188178E-05  2.357431E-02  2.350273E-01
      2389 0001-01-01 00:01:59.00  2.265207E-04  1.595169E-04  3.860376E-04  7.714352E+02
                          (63,16)  2.349578E-02  8.764342E-05  2.358342E-02  2.349627E-01
      2390 0001-01-01 00:01:59.00  2.264510E-04  1.595763E-04  3.860273E-04  7.714352E+02
                          (63,16)  2.348662E-02  1.035906E-04  2.359021E-02  2.348735E-01
      2391 0001-01-01 00:02:00.00  2.263783E-04  1.596387E-04  3.860170E-04  7.714352E+02
                          (63,16)  2.347500E-02  1.198427E-04  2.359484E-02  2.347602E-01
      2392 0001-01-01 00:02:00.00  2.263037E-04  1.597029E-04  3.860066E-04  7.714352E+02
                          (62,16)  2.318124E-02  4.348056E-04  2.361604E-02  2.346232E-01
      2393 0001-01-01 00:02:00.00  2.262281E-04  1.597681E-04  3.859962E-04  7.714352E+02
                          (62,16)  2.321552E-02  4.201248E-04  2.363564E-02  2.344629E-01
      2394 0001-01-01 00:02:00.00  2.261526E-04  1.598331E-04  3.859858E-04  7.714352E+02
                          (62,17)  2.324751E-02  4.046886E-04  2.365219E-02  2.342798E-01
      2395 0001-01-01 00:02:00.00  2.260785E-04  1.598968E-04  3.859753E-04  7.714352E+02
                          (62,17)  2.327724E-02  3.883832E-04  2.366562E-02  2.340746E-01
      2396 0001-01-01 00:02:00.00  2.260067E-04  1.599581E-04  3.859648E-04  7.714352E+02
                          (62,17)  2.330475E-02  3.711097E-04  2.367586E-02  2.338477E-01
      2397 0001-01-01 00:02:00.00  2.259384E-04  1.600159E-04  3.859543E-04  7.714352E+02
                          (62,16)  2.333006E-02  3.527871E-04  2.368285E-02  2.335998E-01
      2398 0001-01-01 00:02:00.00  2.258748E-04  1.600691E-04  3.859438E-04  7.714352E+02
                          (62,17)  2.335321E-02  3.333530E-04  2.368656E-02  2.335982E-01
      2399 0001-01-01 00:02:00.00  2.258166E-04  1.601168E-04  3.859334E-04  7.714352E+02
                          (62,17)  2.337422E-02  3.127656E-04  2.368698E-02  2.337995E-01
      2400 0001-01-01 00:02:00.00  2.257650E-04  1.601580E-04  3.859230E-04  7.714352E+02
                          (62,17)  2.339312E-02  2.910044E-04  2.368412E-02  2.339801E-01
      WRT_HIS     - wrote history     fields (Index=1)   in record = 0000031
      WRT_RST     - wrote re-start    fields (Index=1)   in record = 0000001

 Elapsed CPU time (seconds):

 Thread #  0 CPU:       1.270
 Total:                 1.270

 Nonlinear model elapsed CPU time profile, Grid: 01

  Allocation and array initialization ..............         0.001  ( 0.0548 %)
  Ocean state initialization .......................         0.001  ( 0.0755 %)
  Reading of input data ............................         0.001  ( 0.0946 %)
  Processing of input data .........................         0.007  ( 0.5570 %)
  Computation of vertical boundary conditions ......         0.039  ( 3.0559 %)
  Computation of global information integrals ......         0.089  ( 6.9998 %)
  Writing of output data ...........................         0.008  ( 0.6327 %)
  Model 2D kernel ..................................         1.103  (86.8526 %)
                                              Total:         1.248   98.3229

  Unique code regions profiled .....................         1.248   98.3229 %
  Residual, non-profiled code ......................         0.021    1.6771 %


 All percentages are with respect to total time =            1.270


 ROMS/TOMS - Output NetCDF summary for Grid 01:
             number of time records written in HISTORY file = 00000031
             number of time records written in RESTART file = 00000002

 Analytical header files used:

     ROMS/Functionals/ana_grid.h
     ROMS/Functionals/ana_initial.h
     ROMS/Functionals/ana_smflux.h

 ROMS/TOMS: DONE... Tuesday - February 20, 2018 - 10:28:50 AM
