
 Model Input Parameters:  ROMS/TOMS version 3.6  
                          Friday - January 20, 2012 -  2:36:00 PM
 -----------------------------------------------------------------------------

 Wind-Driven Constant Coriolis Basin

 Operating system : CYGWIN
 CPU/hardware     : i686
 Compiler system  : gfortran
 Compiler command : /usr/bin/gfortran
 Compiler flags   : -frepack-arrays -O3 -fno-bounds-check -ffree-form -ffree-line-length-none -ffree-form -ffree-line-length-none

 SVN Root URL  : https:://myroms.org/svn/src
 SVN Revision  : Unversioned directory

 Local Root    : /cygdrive/c/Users/Hadfield/ROMS/roms-new
 Header Dir    : /cygdrive/c/Users/Hadfield/ROMS/roms-test-local/windbasin
 Header file   : windbasin.h
 Analytical Dir: /cygdrive/c/Users/Hadfield/ROMS/roms-test-local/windbasin

 Resolution, Grid 01: 0101x0052x025,  Parallel Threads:  1,  Tiling: 002x001


 Physical Parameters, Grid: 01
 =============================

       7200  ntimes          Number of timesteps for 3-D equations.
    120.000  dt              Timestep size (s) for 3-D equations.
         30  ndtfast         Number of timesteps for 2-D equations between
                               each 3D timestep.
          1  ERstr           Starting ensemble/perturbation run number.
          1  ERend           Ending ensemble/perturbation run number.
          0  nrrec           Number of restart records to read from disk.
          T  LcycleRST       Switch to recycle time-records in restart file.
        720  nRST            Number of timesteps between the writing of data
                               into restart fields.
          1  ninfo           Number of timesteps between print of information
                               to standard output.
          T  ldefout         Switch to create a new output NetCDF file(s).
        720  nHIS            Number of timesteps between the writing fields
                               into history file.
          1  ntsAVG          Starting timestep for the accumulation of output
                               time-averaged data.
        720  nAVG            Number of timesteps between the writing of
                               time-averaged data into averages file.
          1  ntsDIA          Starting timestep for the accumulation of output
                               time-averaged diagnostics data.
       7200  nDIA            Number of timesteps between the writing of
                               time-averaged data into diagnostics file.
 0.0000E+00  Akt_bak(01)     Background vertical mixing coefficient (m2/s)
                               for tracer 01: temp
 4.0000E-03  Akv_bak         Background vertical mixing coefficient (m2/s)
                               for momentum.
 3.0000E-04  rdrg            Linear bottom drag coefficient (m/s).
 3.0000E-03  rdrg2           Quadratic bottom drag coefficient.
 2.0000E-02  Zob             Bottom roughness (m).
          2  Vtransform      S-coordinate transformation equation.
          4  Vstretching     S-coordinate stretching function.
 1.0000E+00  theta_s         S-coordinate surface control parameter.
 0.0000E+00  theta_b         S-coordinate bottom  control parameter.
     50.000  Tcline          S-coordinate surface/bottom layer width (m) used
                               in vertical coordinate stretching.
   1025.000  rho0            Mean density (kg/m3) for Boussinesq approximation.
      0.000  dstart          Time-stamp assigned to model initialization (days).
       0.00  time_ref        Reference time for units attribute (yyyymmdd.dd)
 0.0000E+00  Tnudg(01)       Nudging/relaxation time scale (days)
                               for tracer 01: temp
 0.0000E+00  Znudg           Nudging/relaxation time scale (days)
                               for free-surface.
 0.0000E+00  M2nudg          Nudging/relaxation time scale (days)
                               for 2D momentum.
 0.0000E+00  M3nudg          Nudging/relaxation time scale (days)
                               for 3D momentum.
 0.0000E+00  obcfac          Factor between passive and active
                               open boundary conditions.
          F  VolCons(1)      NLM western  edge boundary volume conservation.
          F  VolCons(2)      NLM southern edge boundary volume conservation.
          F  VolCons(3)      NLM eastern  edge boundary volume conservation.
          F  VolCons(4)      NLM northern edge boundary volume conservation.
     10.000  T0              Background potential temperature (C) constant.
     35.000  S0              Background salinity (PSU) constant.
   1027.000  R0              Background density (kg/m3) used in linear Equation
                               of State.
 1.7000E-04  Tcoef           Thermal expansion coefficient (1/Celsius).
 7.6000E-04  Scoef           Saline contraction coefficient (1/PSU).
      1.000  gamma2          Slipperiness variable: free-slip (1.0) or 
                                                    no-slip (-1.0).
          T  Hout(idFsur)    Write out free-surface.
          T  Hout(idUbar)    Write out 2D U-momentum component.
          T  Hout(idVbar)    Write out 2D V-momentum component.
          T  Hout(idUvel)    Write out 3D U-momentum component.
          T  Hout(idVvel)    Write out 3D V-momentum component.
          T  Hout(idWvel)    Write out W-momentum component.
          T  Hout(idOvel)    Write out omega vertical velocity.
          T  Hout(idTvar)    Write out tracer 01: temp

          T  Aout(idFsur)    Write out averaged free-surface.
          T  Aout(idUbar)    Write out averaged 2D U-momentum component.
          T  Aout(idVbar)    Write out averaged 2D V-momentum component.
          T  Aout(idUvel)    Write out averaged 3D U-momentum component.
          T  Aout(idVvel)    Write out averaged 3D V-momentum component.
          T  Aout(idWvel)    Write out averaged W-momentum component.
          T  Aout(idOvel)    Write out averaged omega vertical velocity.
          T  Aout(idTvar)    Write out averaged tracer 01: temp

          T  Dout(M2rate)    Write out 2D momentun acceleration.
          T  Dout(M2pgrd)    Write out 2D momentum pressure gradient.
          T  Dout(M2fcor)    Write out 2D momentum Coriolis force.
          T  Dout(M2sstr)    Write out 2D momentum surface stress.
          T  Dout(M2bstr)    Write out 2D momentum bottom stress.

          T  Dout(M3rate)    Write out 3D momentun acceleration.
          T  Dout(M3pgrd)    Write out 3D momentum pressure gradient.
          T  Dout(M3fcor)    Write out 3D momentum Coriolis force.
          T  Dout(M3vvis)    Write out 3D momentum vertical viscosity.

          T  Dout(iTrate)    Write out rate of change of tracer 01: temp
          T  Dout(iThadv)    Write out horizontal advection, tracer 01: temp
          T  Dout(iTxadv)    Write out horizontal X-advection, tracer 01: temp
          T  Dout(iTyadv)    Write out horizontal Y-advection, tracer 01: temp
          T  Dout(iTvadv)    Write out vertical advection, tracer 01: temp
          T  Dout(iTvdif)    Write out vertical diffusion, tracer 01: temp

 Output/Input Files:

             Output Restart File:  ocean_rst.nc
             Output History File:  ocean_his.nc
            Output Averages File:  ocean_avg.nc
         Output Diagnostics File:  ocean_dia.nc

 Tile partition information for Grid 01:  0101x0052x0025  tiling: 002x001

     tile     Istr     Iend     Jstr     Jend     Npts

        0        1       51        1       52    66300
        1       52      101        1       52    65000

 Tile minimum and maximum fractional grid coordinates:
   (interior points only)

     tile     Xmin     Xmax     Ymin     Ymax     grid

        0     0.50   102.50     0.50    53.50  RHO-points
        1    -0.50   101.50     0.50    53.50  RHO-points

        0     0.00   102.50     0.50    53.50    U-points
        1    -0.50   101.00     0.50    53.50    U-points

        0     0.50   102.50     0.00    53.00    V-points
        1    -0.50   101.50     0.00    53.00    V-points

 Lateral Boundary Conditions: NLM
 ============================

 Variable               Grid    West Edge   South Edge  East Edge   North Edge
 ---------              ----    ----------  ----------  ----------  ----------

 zeta                     1     Closed      Closed      Closed      Closed

 ubar                     1     Closed      Closed      Closed      Closed

 vbar                     1     Closed      Closed      Closed      Closed

 u                        1     Closed      Closed      Closed      Closed

 v                        1     Closed      Closed      Closed      Closed

 temp                     1     Closed      Closed      Closed      Closed

 salt                     1     <å a<å a    Closed      Closed      Closed

 Activated C-preprocessing Options:

 WINDBASIN           Wind-Driven Constant Coriolis Basin
 ANA_BTFLUX          Analytical kinematic bottom temperature flux.
 ANA_GRID            Analytical grid set-up.
 ANA_INITIAL         Analytical initial conditions.
 ANA_SMFLUX          Analytical kinematic surface momentum flux.
 ANA_STFLUX          Analytical kinematic surface temperature flux.
 ASSUMED_SHAPE       Using assumed-shape arrays.
 AVERAGES            Writing out time-averaged nonlinear model fields.
 DIAGNOSTICS_TS      Computing and writing tracer diagnostic terms.
 DIAGNOSTICS_UV      Computing and writing momentum diagnostic terms.
 DOUBLE_PRECISION    Double precision arithmetic.
 NONLINEAR           Nonlinear Model.
 !NONLIN_EOS         Linear Equation of State for seawater.
 POWER_LAW           Power-law shape time-averaging barotropic filter.
 PRSGRD31            Standard density Jacobian formulation (Song, 1998).
 PROFILE             Time profiling activated .
 RHO_SURF            Include difference between rho0 and surface density.
 !RST_SINGLE         Double precision fields in restart NetCDF file.
 SOLVE3D             Solving 3D Primitive Equations.
 SPLINES             Conservative parabolic spline reconstruction.
 TS_C4HADVECTION     Fourth-order centered horizontal advection of tracers.
 TS_C4VADVECTION     Fourth-order centered vertical advection of tracers.
 UV_COR              Coriolis term.
 UV_QDRAG            Quadratic bottom stress.
 VAR_RHO_2D          Variable density barotropic mode.

 Process Information:

 Thread #  0 (pid=       0) is active.

 INITIAL: Configuring and initializing forward nonlinear model ...


 Vertical S-coordinate System: 

 level   S-coord     Cs-curve   Z   at hmin       at hc    half way     at hmax

    25   0.0000000   0.0000000        0.000       0.000       0.000       0.000
    24  -0.0400000  -0.0014733       -0.086      -1.037      -0.700      -1.037
    23  -0.0800000  -0.0058955       -0.173      -2.147      -1.426      -2.147
    22  -0.1200000  -0.0132736       -0.259      -3.332      -2.178      -3.332
    21  -0.1600000  -0.0236196       -0.346      -4.590      -2.957      -4.590
    20  -0.2000000  -0.0369499       -0.434      -5.924      -3.763      -5.924
    19  -0.2400000  -0.0532858       -0.521      -7.332      -4.596      -7.332
    18  -0.2800000  -0.0726536       -0.609      -8.816      -5.456      -8.816
    17  -0.3200000  -0.0950842       -0.698     -10.377      -6.343     -10.377
    16  -0.3600000  -0.1206135       -0.786     -12.015      -7.258     -12.015
    15  -0.4000000  -0.1492824       -0.875     -13.732      -8.202     -13.732
    14  -0.4400000  -0.1811367       -0.964     -15.528      -9.174     -15.528
    13  -0.4800000  -0.2162274       -1.053     -17.406     -10.175     -17.406
    12  -0.5200000  -0.2546106       -1.143     -19.365     -11.205     -19.365
    11  -0.5600000  -0.2963479       -1.233     -21.409     -12.266     -21.409
    10  -0.6000000  -0.3415059       -1.324     -23.538     -13.357     -23.538
     9  -0.6400000  -0.3901569       -1.414     -25.754     -14.479     -25.754
     8  -0.6800000  -0.4423788       -1.506     -28.059     -15.634     -28.059
     7  -0.7200000  -0.4982552       -1.597     -30.456     -16.821     -30.456
     6  -0.7600000  -0.5578754       -1.689     -32.947     -18.042     -32.947
     5  -0.8000000  -0.6213349       -1.781     -35.533     -19.297     -35.533
     4  -0.8400000  -0.6887352       -1.874     -38.218     -20.588     -38.218
     3  -0.8800000  -0.7601842       -1.966     -41.005     -21.915     -41.005
     2  -0.9200000  -0.8357962       -2.060     -43.895     -23.279     -43.895
     1  -0.9600000  -0.9156922       -2.154     -46.892     -24.682     -46.892
     0  -1.0000000  -1.0000000       -2.248     -50.000     -26.124     -50.000

 Time Splitting Weights: ndtfast =  30    nfast =  42

    Primary            Secondary            Accumulated to Current Step

  1-0.0008094437383769 0.0333333333333333-0.0008094437383769 0.0333333333333333
  2-0.0014053566728197 0.0333603147912792-0.0022148004111966 0.0666936481246126
  3-0.0017877524645903 0.0334071600137066-0.0040025528757869 0.1001008081383191
  4-0.0019566842408176 0.0334667517625262-0.0059592371166046 0.1335675599008453
  5-0.0019122901320372 0.0335319745705535-0.0078715272486418 0.1670995344713988
  6-0.0016548570247459 0.0335957175749547-0.0095263842733877 0.2006952520463536
  7-0.0011849025289723 0.0336508794757796-0.0107112868023601 0.2343461315221331
  8-0.0005032751608632 0.0336903762267453-0.0112145619632232 0.2680365077488784
  9 0.0003887272597151 0.0337071520654408-0.0108258347035082 0.3017436598143192
 10 0.0014892209965583 0.0336941944901169-0.0093366137069499 0.3354378543044362
 11 0.0027955815694920 0.0336445537902317-0.0065410321374578 0.3690824080946679
 12 0.0043042707117221 0.0335513677379153-0.0022367614257357 0.4026337758325831
 13 0.0060106451121704 0.0334078920475245 0.0037738836864347 0.4360416678801077
 14 0.0079087469427945 0.0332075372104522 0.0116826306292292 0.4692492050905598
 15 0.0099910761708919 0.0329439123123590 0.0216737068001212 0.5021931174029188
 16 0.0122483446563884 0.0326108764399960 0.0339220514565096 0.5348039938429148
 17 0.0146692120341107 0.0322025982847830 0.0485912634906203 0.5670065921276978
 18 0.0172400033810439 0.0317136245503127 0.0658312668716642 0.5987202166780105
 19 0.0199444086685725 0.0311389577709445 0.0857756755402366 0.6298591744489550
 20 0.0227631639997064 0.0304741441486588 0.1085388395399430 0.6603333185976138
 21 0.0256737146312910 0.0297153720153352 0.1342125541712340 0.6900486906129490
 22 0.0286498597812016 0.0288595815276255 0.1628624139524357 0.7189082721405746
 23 0.0316613792205219 0.0279045862015855 0.1945237931729576 0.7468128583421600
 24 0.0346736416507075 0.0268492068942347 0.2291974348236651 0.7736620652363948
 25 0.0376471948657328 0.0256934188392112 0.2668446296893979 0.7993554840756060
 26 0.0405373376992232 0.0244385123436867 0.3073819673886211 0.8237939964192927
 27 0.0432936737565710 0.0230872677537126 0.3506756411451921 0.8468812641730054
 28 0.0458596469320356 0.0216441452951603 0.3965352880772277 0.8685254094681656
 29 0.0481720587108284 0.0201154903974257 0.4447073467880561 0.8886408998655914
 30 0.0501605672561820 0.0185097551070648 0.4948679140442381 0.9071506549726561
 31 0.0517471682814030 0.0168377361985254 0.5466150823256412 0.9239883911711815
 32 0.0528456577069106 0.0151128305891453 0.5994607400325518 0.9391012217603267
 33 0.0533610761022577 0.0133513086655816 0.6528218161348095 0.9524525304259084
 34 0.0531891349131379 0.0115726061288397 0.7060109510479474 0.9640251365547481
 35 0.0522156244733761 0.0097996349650684 0.7582265755213234 0.9738247715198165
 36 0.0503158038019030 0.0080591141492892 0.8085423793232265 0.9818838856691057
 37 0.0473537721847154 0.0063819206892258 0.8558961515079418 0.9882658063583315
 38 0.0431818225418188 0.0048034616164019 0.8990779740497606 0.9930692679747335
 39 0.0376397765791564 0.0033640675316746 0.9367177506289170 0.9964333355064081
 40 0.0305543017255207 0.0021094083123694 0.9672720523544377 0.9985427438187775
 41 0.0217382098544505 0.0010909315881854 0.9890102622088881 0.9996336754069629
 42 0.0109897377911118 0.0003663245930371 0.9999999999999999 1.0000000000000000

 ndtfast, nfast =   30  42   nfast/ndtfast =  1.40000

 Centers of gravity and integrals (values must be 1, 1, approx 1/2, 1, 1):

    1.000000000000 1.047601458608 0.523800729304 1.000000000000 1.000000000000

 Power filter parameters, Fgamma, gamma =  0.28400   0.18933

 Minimum X-grid spacing, DXmin =  2.00000000E+00 km
 Maximum X-grid spacing, DXmax =  2.00000000E+00 km
 Minimum Y-grid spacing, DYmin =  1.00000000E+00 km
 Maximum Y-grid spacing, DYmax =  1.00000000E+00 km
 Minimum Z-grid spacing, DZmin =  8.61853682E-02 m
 Maximum Z-grid spacing, DZmax =  3.10769599E+00 m

 Minimum barotropic Courant Number =  2.10003204E-02
 Maximum barotropic Courant Number =  9.90454441E-02
 Maximum Coriolis   Courant Number =  1.20000000E-02


 Maximum grid stiffness ratios:  rx0 =   2.260333E-01 (Beckmann and Haidvogel)
                                 rx1 =   9.593942E+00 (Haney)


 Initial basin volumes: TotVolume =  3.7004444001E+11 m3
                        MinVolume =  4.1232050106E+05 m3
                        MaxVolume =  6.2153919861E+06 m3
                          Max/Min =  1.5074176448E+01


 NL ROMS/TOMS: started time-stepping: (Grid: 01 TimeSteps: 00000001 - 00007200)


     STEP   Day HH:MM:SS  KINETIC_ENRG  POTEN_ENRG   TOTAL_ENRG   NET_VOLUME
            C => (i,j,k)       Cu           Cv           Cw        Max Speed

        0     0 00:00:00  0.000000E+00 1.972841E+02 1.972841E+02 3.700444E+11
             (000,00,00)  0.000000E+00 0.000000E+00 0.000000E+00 0.000000E+00
      DEF_HIS   - creating history file: ocean_his.nc
      WRT_HIS   - wrote history  fields (Index=1,1) into time record = 0000001
      DEF_AVG   - creating average file: ocean_avg.nc
      DEF_DIAGS - creating diagnostics file: ocean_dia.nc
        1     0 00:02:00  0.000000E+00 1.972841E+02 1.972841E+02 3.700444E+11
             (000,00,00)  0.000000E+00 0.000000E+00 0.000000E+00 0.000000E+00
        2     0 00:04:00  1.332508E-12 1.972841E+02 1.972841E+02 3.700444E+11
             (051,52,25)  9.182614E-07 5.876362E-10 0.000000E+00 1.530436E-05
        3     0 00:06:00  1.064374E-11 1.972841E+02 1.972841E+02 3.700444E+11
             (001,52,25)  1.168156E-06 4.165175E-09 3.130561E-06 3.959643E-05
        4     0 00:08:00  3.867537E-11 1.972841E+02 1.972841E+02 3.700444E+11
             (001,52,25)  2.051799E-06 3.874098E-09 8.822275E-06 7.072718E-05
        5     0 00:10:00  9.912289E-11 1.972841E+02 1.972841E+02 3.700444E+11
             (001,52,25)  3.058854E-06 1.190488E-08 1.567251E-05 1.075803E-04
        6     0 00:12:00  2.080750E-10 1.972841E+02 1.972841E+02 3.700444E+11
             (001,52,25)  4.164091E-06 5.430782E-08 2.203066E-05 1.494495E-04
        7     0 00:14:00  3.836659E-10 1.972841E+02 1.972841E+02 3.700444E+11
             (001,52,25)  5.360276E-06 1.267800E-07 2.688136E-05 1.958385E-04
        8     0 00:16:00  6.458288E-10 1.972841E+02 1.972841E+02 3.700444E+11
             (002,52,25)  1.372813E-05 3.061459E-07 2.622731E-05 2.463746E-04
        9     0 00:18:00  1.016107E-09 1.972841E+02 1.972841E+02 3.700444E+11
             (002,52,25)  1.655918E-05 3.587188E-07 3.185486E-05 3.007660E-04
       10     0 00:20:00  1.517500E-09 1.972841E+02 1.972841E+02 3.700444E+11
             (002,52,25)  1.955535E-05 4.080186E-07 3.535180E-05 3.587768E-04
       11     0 00:22:00  2.174343E-09 1.972841E+02 1.972841E+02 3.700444E+11
             (002,52,25)  2.270736E-05 4.621419E-07 3.840314E-05 4.202123E-04
       12     0 00:24:00  3.012191E-09 1.972841E+02 1.972841E+02 3.700444E+11
             (002,52,25)  2.600182E-05 5.185850E-07 4.215143E-05 4.849097E-04
       13     0 00:26:00  4.057726E-09 1.972841E+02 1.972841E+02 3.700444E+11
             (002,52,25)  2.942723E-05 5.738427E-07 4.628816E-05 5.527306E-04
       14     0 00:28:00  5.338673E-09 1.972841E+02 1.972841E+02 3.700444E+11
             (002,52,25)  3.297616E-05 6.284583E-07 5.016837E-05 6.235568E-04
       15     0 00:30:00  6.883724E-09 1.972841E+02 1.972841E+02 3.700444E+11
             (001,51,16)  1.210165E-06 3.995486E-06 9.150686E-05 6.972870E-04
       16     0 00:32:00  8.722461E-09 1.972841E+02 1.972841E+02 3.700444E+11
             (001,51,16)  1.485596E-06 4.698739E-06 1.061621E-04 7.738334E-04
       17     0 00:34:00  1.088530E-08 1.972841E+02 1.972841E+02 3.700444E+11
             (001,51,16)  1.788573E-06 5.455580E-06 1.216304E-04 8.531200E-04
       18     0 00:36:00  1.340341E-08 1.972841E+02 1.972841E+02 3.700444E+11
             (001,51,16)  2.118591E-06 6.266177E-06 1.378902E-04 9.350808E-04
       19     0 00:38:00  1.630869E-08 1.972841E+02 1.972841E+02 3.700444E+11
             (001,51,16)  2.475543E-06 7.129466E-06 1.548995E-04 1.019659E-03
       20     0 00:40:00  1.963367E-08 1.972841E+02 1.972841E+02 3.700444E+11
             (001,51,15)  1.514917E-06 8.231916E-06 1.739629E-04 1.106803E-03
       21     0 00:42:00  2.341152E-08 1.972841E+02 1.972841E+02 3.700444E+11
             (001,51,15)  1.801141E-06 9.221122E-06 1.927125E-04 1.196472E-03
       22     0 00:44:00  2.767593E-08 1.972841E+02 1.972841E+02 3.700444E+11
             (001,51,15)  2.109738E-06 1.026304E-05 2.121242E-04 1.288625E-03
       23     0 00:46:00  3.246113E-08 1.972841E+02 1.972841E+02 3.700444E+11
             (001,51,15)  2.439999E-06 1.135796E-05 2.321886E-04 1.383231E-03
       24     0 00:48:00  3.780180E-08 1.972841E+02 1.972841E+02 3.700444E+11
             (001,51,15)  2.791616E-06 1.250557E-05 2.528930E-04 1.480260E-03
       25     0 00:50:00  4.373306E-08 1.972841E+02 1.972841E+02 3.700444E+11
             (001,51,15)  3.164602E-06 1.370554E-05 2.742158E-04 1.579688E-03
       26     0 00:52:00  5.029040E-08 1.972841E+02 1.972841E+02 3.700444E+11
             (001,51,15)  3.558895E-06 1.495828E-05 2.961298E-04 1.681491E-03
       27     0 00:54:00  5.750969E-08 1.972841E+02 1.972841E+02 3.700444E+11
             (001,51,15)  3.974040E-06 1.626496E-05 3.186146E-04 1.785650E-03
       28     0 00:56:00  6.542708E-08 1.972841E+02 1.972841E+02 3.700444E+11
             (001,51,15)  4.409375E-06 1.762697E-05 3.416688E-04 1.892149E-03
       29     0 00:58:00  7.407902E-08 1.972841E+02 1.972841E+02 3.700444E+11
             (001,51,15)  4.864458E-06 1.904520E-05 3.652986E-04 2.000973E-03
       30     0 01:00:00  8.350220E-08 1.972841E+02 1.972841E+02 3.700444E+11
             (001,51,15)  5.339178E-06 2.051968E-05 3.894997E-04 2.112109E-03
       31     0 01:02:00  9.373349E-08 1.972841E+02 1.972841E+02 3.700444E+11
             (001,51,14)  3.302469E-06 2.255115E-05 4.166378E-04 2.225546E-03
       32     0 01:04:00  1.048100E-07 1.972841E+02 1.972841E+02 3.700444E+11
             (001,51,14)  3.678434E-06 2.417378E-05 4.424075E-04 2.341274E-03
       33     0 01:06:00  1.167688E-07 1.972841E+02 1.972841E+02 3.700444E+11
             (001,51,14)  4.071807E-06 2.585293E-05 4.687201E-04 2.459285E-03
       34     0 01:08:00  1.296473E-07 1.972841E+02 1.972841E+02 3.700444E+11
             (001,51,14)  4.482299E-06 2.758903E-05 4.955634E-04 2.579571E-03
       35     0 01:10:00  1.434827E-07 1.972841E+02 1.972841E+02 3.700444E+11
             (001,51,14)  4.909749E-06 2.938223E-05 5.229291E-04 2.702126E-03
       36     0 01:12:00  1.583125E-07 1.972841E+02 1.972841E+02 3.700444E+11
             (001,51,14)  5.354163E-06 3.123241E-05 5.508080E-04 2.826943E-03
       37     0 01:14:00  1.741739E-07 1.972841E+02 1.972841E+02 3.700444E+11
             (001,51,14)  5.815578E-06 3.313950E-05 5.791858E-04 2.954018E-03
       38     0 01:16:00  1.911043E-07 1.972841E+02 1.972841E+02 3.700444E+11
             (001,51,14)  6.293894E-06 3.510367E-05 6.080463E-04 3.083346E-03
       39     0 01:18:00  2.091408E-07 1.972841E+02 1.972841E+02 3.700444E+11
             (001,51,14)  6.788875E-06 3.712511E-05 6.373786E-04 3.214922E-03
       40     0 01:20:00  2.283206E-07 1.972841E+02 1.972841E+02 3.700444E+11
             (001,51,14)  7.300330E-06 3.920398E-05 6.671776E-04 3.348744E-03
       41     0 01:22:00  2.486806E-07 1.972841E+02 1.972841E+02 3.700444E+11
             (001,51,14)  7.828223E-06 4.134027E-05 6.974370E-04 3.484807E-03
       42     0 01:24:00  2.702574E-07 1.972841E+02 1.972841E+02 3.700444E+11
             (001,51,14)  8.372598E-06 4.353388E-05 7.281451E-04 3.623107E-03
       43     0 01:26:00  2.930876E-07 1.972841E+02 1.972841E+02 3.700444E+11
             (001,51,14)  8.933444E-06 4.578474E-05 7.592882E-04 3.763635E-03
       44     0 01:28:00  3.172075E-07 1.972841E+02 1.972841E+02 3.700444E+11
             (001,51,14)  9.510642E-06 4.809287E-05 7.908549E-04 3.906375E-03
       45     0 01:30:00  3.426530E-07 1.972841E+02 1.972841E+02 3.700444E+11
             (001,51,14)  1.010404E-05 5.045843E-05 8.228376E-04 4.051299E-03
       46     0 01:32:00  3.694598E-07 1.972841E+02 1.972841E+02 3.700444E+11
             (001,51,13)  6.427766E-06 5.401901E-05 8.587155E-04 4.198352E-03
       47     0 01:34:00  3.976633E-07 1.972841E+02 1.972841E+02 3.700444E+11
             (001,51,13)  6.909530E-06 5.655127E-05 8.920805E-04 4.347458E-03
       48     0 01:36:00  4.272983E-07 1.972841E+02 1.972841E+02 3.700444E+11
             (001,51,13)  7.406789E-06 5.914167E-05 9.258619E-04 4.498518E-03
       49     0 01:38:00  4.583996E-07 1.972841E+02 1.972841E+02 3.700444E+11
             (001,51,13)  7.919560E-06 6.179012E-05 9.600491E-04 4.651433E-03
       50     0 01:40:00  4.910014E-07 1.972841E+02 1.972841E+02 3.700444E+11
             (001,51,13)  8.447791E-06 6.449652E-05 9.946325E-04 4.806126E-03
       51     0 01:42:00  5.251376E-07 1.972841E+02 1.972841E+02 3.700444E+11
             (001,51,13)  8.991416E-06 6.726056E-05 1.029603E-03 4.962551E-03
       52     0 01:44:00  5.608418E-07 1.972841E+02 1.972841E+02 3.700444E+11
             (001,51,13)  9.550435E-06 7.008169E-05 1.064951E-03 5.120684E-03
       53     0 01:46:00  5.981472E-07 1.972841E+02 1.972841E+02 3.700444E+11
             (001,51,13)  1.012491E-05 7.295927E-05 1.100663E-03 5.280499E-03
       54     0 01:48:00  6.370866E-07 1.972841E+02 1.972841E+02 3.700444E+11
             (001,51,13)  1.071491E-05 7.589290E-05 1.136725E-03 5.441947E-03
       55     0 01:50:00  6.776928E-07 1.972841E+02 1.972841E+02 3.700444E+11
             (001,51,13)  1.132043E-05 7.888280E-05 1.173126E-03 5.604958E-03
       56     0 01:52:00  7.199980E-07 1.972841E+02 1.972841E+02 3.700444E+11
             (001,51,13)  1.194142E-05 8.192985E-05 1.209865E-03 5.769445E-03
       57     0 01:54:00  7.640343E-07 1.972841E+02 1.972841E+02 3.700444E+11
             (001,51,13)  1.257789E-05 8.503526E-05 1.246947E-03 5.935354E-03
       58     0 01:56:00  8.098338E-07 1.972841E+02 1.972841E+02 3.700444E+11
             (001,51,13)  1.322987E-05 8.820013E-05 1.284378E-03 6.102533E-03
       59     0 01:58:00  8.574281E-07 1.972841E+02 1.972841E+02 3.700444E+11
             (001,51,13)  1.389744E-05 9.142520E-05 1.322164E-03 6.270859E-03
       60     0 02:00:00  9.068489E-07 1.972841E+02 1.972841E+02 3.700444E+11
             (001,51,13)  1.458064E-05 9.471095E-05 1.360311E-03 6.440221E-03
       61     0 02:02:00  9.581276E-07 1.972841E+02 1.972841E+02 3.700444E+11
             (001,51,13)  1.527948E-05 9.805777E-05 1.398821E-03 6.610542E-03
       62     0 02:04:00  1.011296E-06 1.972841E+02 1.972841E+02 3.700444E+11
             (001,51,13)  1.599394E-05 1.014660E-04 1.437694E-03 6.781813E-03
       63     0 02:06:00  1.066384E-06 1.972841E+02 1.972841E+02 3.700444E+11
             (001,51,13)  1.672403E-05 1.049359E-04 1.476931E-03 6.954091E-03
       64     0 02:08:00  1.123425E-06 1.972841E+02 1.972841E+02 3.700444E+11
             (001,51,13)  1.746981E-05 1.084675E-04 1.516529E-03 7.127785E-03
       65     0 02:10:00  1.182448E-06 1.972841E+02 1.972841E+02 3.700444E+11
             (001,51,13)  1.823134E-05 1.120610E-04 1.556486E-03 7.302732E-03
       66     0 02:12:00  1.243485E-06 1.972841E+02 1.972841E+02 3.700444E+11
             (001,51,12)  1.237016E-05 1.179632E-04 1.601505E-03 7.479203E-03
       67     0 02:14:00  1.306567E-06 1.972841E+02 1.972841E+02 3.700444E+11
             (001,51,12)  1.302145E-05 1.217445E-04 1.642854E-03 7.657187E-03
       68     0 02:16:00  1.371726E-06 1.972841E+02 1.972841E+02 3.700444E+11
             (001,51,12)  1.368834E-05 1.255884E-04 1.684572E-03 7.837086E-03
       69     0 02:18:00  1.438991E-06 1.972841E+02 1.972841E+02 3.700444E+11
             (001,51,12)  1.437087E-05 1.294948E-04 1.726655E-03 8.018935E-03
       70     0 02:20:00  1.508395E-06 1.972841E+02 1.972841E+02 3.700444E+11
             (001,51,12)  1.506910E-05 1.334638E-04 1.769101E-03 8.202564E-03
       71     0 02:22:00  1.579968E-06 1.972841E+02 1.972841E+02 3.700444E+11
             (001,51,12)  1.578310E-05 1.374953E-04 1.811904E-03 8.387691E-03
       72     0 02:24:00  1.653742E-06 1.972841E+02 1.972841E+02 3.700444E+11
             (001,51,12)  1.651289E-05 1.415894E-04 1.855063E-03 8.574113E-03
       73     0 02:26:00  1.729747E-06 1.972841E+02 1.972841E+02 3.700444E+11
             (001,51,12)  1.725848E-05 1.457462E-04 1.898573E-03 8.761780E-03
       74     0 02:28:00  1.808017E-06 1.972841E+02 1.972841E+02 3.700444E+11
             (001,51,12)  1.801990E-05 1.499659E-04 1.942435E-03 8.950672E-03
       75     0 02:30:00  1.888581E-06 1.972841E+02 1.972841E+02 3.700444E+11
             (001,51,12)  1.879721E-05 1.542486E-04 1.986645E-03 9.140799E-03
       76     0 02:32:00  1.971471E-06 1.972841E+02 1.972841E+02 3.700444E+11
             (001,51,12)  1.959045E-05 1.585947E-04 2.031205E-03 9.332192E-03
       77     0 02:34:00  2.056721E-06 1.972841E+02 1.972841E+02 3.700444E+11
             (001,51,12)  2.039967E-05 1.630045E-04 2.076115E-03 9.525151E-03
       78     0 02:36:00  2.144361E-06 1.972841E+02 1.972841E+02 3.700444E+11
             (001,51,12)  2.122490E-05 1.674787E-04 2.121377E-03 9.719726E-03
       79     0 02:38:00  2.234424E-06 1.972841E+02 1.972841E+02 3.700444E+11
             (001,51,12)  2.206613E-05 1.720175E-04 2.166995E-03 9.916190E-03
       80     0 02:40:00  2.326942E-06 1.972841E+02 1.972841E+02 3.700444E+11
             (001,51,12)  2.292339E-05 1.766215E-04 2.212971E-03 1.011438E-02
       81     0 02:42:00  2.421949E-06 1.972841E+02 1.972841E+02 3.700444E+11
             (001,51,12)  2.379668E-05 1.812905E-04 2.259306E-03 1.031407E-02
       82     0 02:44:00  2.519476E-06 1.972841E+02 1.972841E+02 3.700444E+11
             (001,51,12)  2.468601E-05 1.860246E-04 2.306000E-03 1.051522E-02
       83     0 02:46:00  2.619558E-06 1.972841E+02 1.972841E+02 3.700444E+11
             (001,51,12)  2.559135E-05 1.908237E-04 2.353051E-03 1.071774E-02
       84     0 02:48:00  2.722227E-06 1.972841E+02 1.972841E+02 3.700444E+11
             (001,51,12)  2.651263E-05 1.956882E-04 2.400460E-03 1.092158E-02
       85     0 02:50:00  2.827517E-06 1.972841E+02 1.972841E+02 3.700444E+11
             (001,51,12)  2.744979E-05 2.006188E-04 2.448232E-03 1.112696E-02
       86     0 02:52:00  2.935462E-06 1.972841E+02 1.972841E+02 3.700444E+11
             (001,51,12)  2.840280E-05 2.056159E-04 2.496372E-03 1.133415E-02
       87     0 02:54:00  3.046096E-06 1.972841E+02 1.972841E+02 3.700444E+11
             (001,51,12)  2.937165E-05 2.106799E-04 2.544884E-03 1.154346E-02
       88     0 02:56:00  3.159454E-06 1.972841E+02 1.972841E+02 3.700444E+11
             (001,51,12)  3.035636E-05 2.158106E-04 2.593769E-03 1.175449E-02
       89     0 02:58:00  3.275571E-06 1.972841E+02 1.972841E+02 3.700444E+11
             (001,51,12)  3.135692E-05 2.210076E-04 2.643025E-03 1.196677E-02
       90     0 03:00:00  3.394482E-06 1.972841E+02 1.972841E+02 3.700444E+11
             (001,51,12)  3.237329E-05 2.262707E-04 2.692649E-03 1.218011E-02
       91     0 03:02:00  3.516222E-06 1.972841E+02 1.972841E+02 3.700444E+11
             (001,51,11)  2.403194E-05 2.354315E-04 2.748727E-03 1.239443E-02
       92     0 03:04:00  3.640827E-06 1.972841E+02 1.972841E+02 3.700444E+11
             (001,51,11)  2.494571E-05 2.408999E-04 2.799909E-03 1.260971E-02
       93     0 03:06:00  3.768335E-06 1.972841E+02 1.972841E+02 3.700444E+11
             (001,51,11)  2.587495E-05 2.464392E-04 2.851504E-03 1.282600E-02
       94     0 03:08:00  3.898781E-06 1.972841E+02 1.972841E+02 3.700444E+11
             (001,51,11)  2.681942E-05 2.520527E-04 2.903544E-03 1.304374E-02
       95     0 03:10:00  4.032204E-06 1.972841E+02 1.972841E+02 3.700444E+11
             (001,51,11)  2.777883E-05 2.577439E-04 2.956068E-03 1.326319E-02
       96     0 03:12:00  4.168640E-06 1.972841E+02 1.972841E+02 3.700444E+11
             (001,51,11)  2.875289E-05 2.635162E-04 3.009124E-03 1.348426E-02
       97     0 03:14:00  4.308129E-06 1.972841E+02 1.972841E+02 3.700444E+11
             (001,51,11)  2.974135E-05 2.693727E-04 3.062758E-03 1.370670E-02
       98     0 03:16:00  4.450707E-06 1.972841E+02 1.972841E+02 3.700444E+11
             (001,51,11)  3.074410E-05 2.753145E-04 3.117004E-03 1.393021E-02
       99     0 03:18:00  4.596415E-06 1.972841E+02 1.972841E+02 3.700444E+11
             (001,51,11)  3.176120E-05 2.813400E-04 3.171873E-03 1.415484E-02
      100     0 03:20:00  4.745290E-06 1.972841E+02 1.972841E+02 3.700444E+11
             (001,51,11)  3.279284E-05 2.874447E-04 3.227340E-03 1.438070E-02
      101     0 03:22:00  4.897374E-06 1.972841E+02 1.972841E+02 3.700444E+11
             (001,51,11)  3.383933E-05 2.936217E-04 3.283348E-03 1.460793E-02
      102     0 03:24:00  5.052705E-06 1.972841E+02 1.972841E+02 3.700444E+11
             (001,51,11)  3.490098E-05 2.998641E-04 3.339819E-03 1.483669E-02
      103     0 03:26:00  5.211323E-06 1.972841E+02 1.972841E+02 3.700444E+11
             (001,51,11)  3.597798E-05 3.061680E-04 3.396676E-03 1.506709E-02
      104     0 03:28:00  5.373269E-06 1.972841E+02 1.972841E+02 3.700444E+11
             (001,51,11)  3.707038E-05 3.125339E-04 3.453878E-03 1.529913E-02
      105     0 03:30:00  5.538582E-06 1.972841E+02 1.972841E+02 3.700444E+11
             (001,51,11)  3.817809E-05 3.189662E-04 3.511426E-03 1.553286E-02
      106     0 03:32:00  5.707303E-06 1.972841E+02 1.972841E+02 3.700444E+11
             (001,51,11)  3.930094E-05 3.254715E-04 3.569367E-03 1.576824E-02
      107     0 03:34:00  5.879473E-06 1.972841E+02 1.972841E+02 3.700444E+11
             (001,51,11)  4.043884E-05 3.320547E-04 3.627763E-03 1.600512E-02
      108     0 03:36:00  6.055132E-06 1.972841E+02 1.972841E+02 3.700444E+11
             (001,51,11)  4.159186E-05 3.387175E-04 3.686668E-03 1.624335E-02
      109     0 03:38:00  6.234321E-06 1.972841E+02 1.972841E+02 3.700444E+11
             (001,51,11)  4.276025E-05 3.454574E-04 3.746098E-03 1.648281E-02
      110     0 03:40:00  6.417080E-06 1.972841E+02 1.972841E+02 3.700444E+11
             (001,51,11)  4.394450E-05 3.522692E-04 3.806026E-03 1.672343E-02
      111     0 03:42:00  6.603449E-06 1.972841E+02 1.972841E+02 3.700444E+11
             (001,51,11)  4.514523E-05 3.591458E-04 3.866385E-03 1.696536E-02
      112     0 03:44:00  6.793469E-06 1.972841E+02 1.972841E+02 3.700444E+11
             (001,51,11)  4.636317E-05 3.660791E-04 3.927079E-03 1.720871E-02
      113     0 03:46:00  6.987180E-06 1.972841E+02 1.972841E+02 3.700444E+11
             (001,51,11)  4.759896E-05 3.730614E-04 3.987998E-03 1.745340E-02
      114     0 03:48:00  7.184623E-06 1.972841E+02 1.972841E+02 3.700444E+11
             (001,51,11)  4.885317E-05 3.800857E-04 4.049039E-03 1.769938E-02
      115     0 03:50:00  7.385837E-06 1.972841E+02 1.972841E+02 3.700444E+11
             (001,51,11)  5.012615E-05 3.871481E-04 4.110116E-03 1.794646E-02
      116     0 03:52:00  7.590863E-06 1.972841E+02 1.972841E+02 3.700444E+11
             (001,51,11)  5.141806E-05 3.942484E-04 4.171179E-03 1.819477E-02
      117     0 03:54:00  7.799739E-06 1.972841E+02 1.972841E+02 3.700444E+11
             (001,51,11)  5.272886E-05 4.013901E-04 4.232222E-03 1.844455E-02
      118     0 03:56:00  8.012504E-06 1.972841E+02 1.972841E+02 3.700444E+11
             (001,51,11)  5.405838E-05 4.085785E-04 4.293279E-03 1.869556E-02
      119     0 03:58:00  8.229199E-06 1.972841E+02 1.972841E+02 3.700444E+11
             (001,51,11)  5.540649E-05 4.158188E-04 4.354408E-03 1.894786E-02
      120     0 04:00:00  8.449861E-06 1.972841E+02 1.972841E+02 3.700444E+11
             (001,51,11)  5.677312E-05 4.231139E-04 4.415663E-03 1.920152E-02
      121     0 04:02:00  8.674528E-06 1.972841E+02 1.972841E+02 3.700444E+11
             (001,51,11)  5.815824E-05 4.304644E-04 4.477082E-03 1.945652E-02
      122     0 04:04:00  8.903239E-06 1.972841E+02 1.972841E+02 3.700444E+11
             (001,51,10)  4.718044E-05 4.436554E-04 4.545817E-03 1.971296E-02
      123     0 04:06:00  9.136030E-06 1.972841E+02 1.972841E+02 3.700444E+11
             (001,51,10)  4.847840E-05 4.511845E-04 4.608597E-03 1.997095E-02
      124     0 04:08:00  9.372939E-06 1.972841E+02 1.972841E+02 3.700444E+11
             (001,51,10)  4.979437E-05 4.587723E-04 4.671602E-03 2.023045E-02
      125     0 04:10:00  9.614001E-06 1.972841E+02 1.972841E+02 3.700444E+11
             (001,51,10)  5.112789E-05 4.664248E-04 4.734876E-03 2.049140E-02
      126     0 04:12:00  9.859254E-06 1.972841E+02 1.972841E+02 3.700444E+11
             (001,51,10)  5.247834E-05 4.741493E-04 4.798492E-03 2.075373E-02
      127     0 04:14:00  1.010873E-05 1.972841E+02 1.972841E+02 3.700444E+11
             (001,51,10)  5.384515E-05 4.819527E-04 4.862537E-03 2.101743E-02
      128     0 04:16:00  1.036247E-05 1.972841E+02 1.972841E+02 3.700444E+11
             (001,51,10)  5.522783E-05 4.898389E-04 4.927092E-03 2.128259E-02
      129     0 04:18:00  1.062050E-05 1.972841E+02 1.972841E+02 3.700444E+11
             (001,51,10)  5.662613E-05 4.978088E-04 4.992210E-03 2.154923E-02
      130     0 04:20:00  1.088286E-05 1.972841E+02 1.972841E+02 3.700444E+11
             (001,51,10)  5.803998E-05 5.058597E-04 5.057906E-03 2.181741E-02
      131     0 04:22:00  1.114958E-05 1.972841E+02 1.972841E+02 3.700444E+11
             (001,51,10)  5.946953E-05 5.139869E-04 5.124154E-03 2.208718E-02
      132     0 04:24:00  1.142070E-05 1.972841E+02 1.972841E+02 3.700444E+11
             (001,51,10)  6.091490E-05 5.221849E-04 5.190902E-03 2.235861E-02
      133     0 04:26:00  1.169624E-05 1.972841E+02 1.972841E+02 3.700444E+11
             (001,51,10)  6.237619E-05 5.304500E-04 5.258095E-03 2.263178E-02
      134     0 04:28:00  1.197624E-05 1.972841E+02 1.972841E+02 3.700444E+11
             (001,51,10)  6.385343E-05 5.387814E-04 5.325694E-03 2.290689E-02
      135     0 04:30:00  1.226072E-05 1.972841E+02 1.972841E+02 3.700444E+11
             (001,51,10)  6.534665E-05 5.471806E-04 5.393688E-03 2.318416E-02
      136     0 04:32:00  1.254972E-05 1.972841E+02 1.972841E+02 3.700444E+11
             (001,51,10)  6.685598E-05 5.556498E-04 5.462086E-03 2.346487E-02
      137     0 04:34:00  1.284327E-05 1.972841E+02 1.972841E+02 3.700444E+11
             (001,51,10)  6.838174E-05 5.641889E-04 5.530897E-03 2.374797E-02
      138     0 04:36:00  1.314139E-05 1.972841E+02 1.972841E+02 3.700444E+11
             (001,51,10)  6.992445E-05 5.727941E-04 5.600109E-03 2.403303E-02
      139     0 04:38:00  1.344410E-05 1.972841E+02 1.972841E+02 3.700444E+11
             (001,51,10)  7.148481E-05 5.814592E-04 5.669674E-03 2.431992E-02
      140     0 04:40:00  1.375145E-05 1.972841E+02 1.972841E+02 3.700444E+11
             (001,51,10)  7.306354E-05 5.901775E-04 5.739518E-03 2.460849E-02
      141     0 04:42:00  1.406345E-05 1.972841E+02 1.972841E+02 3.700444E+11
             (001,51,10)  7.466127E-05 5.989439E-04 5.809561E-03 2.489885E-02
      142     0 04:44:00  1.438012E-05 1.972841E+02 1.972841E+02 3.700444E+11
             (001,51,10)  7.627846E-05 6.077564E-04 5.879739E-03 2.519070E-02
      143     0 04:46:00  1.470150E-05 1.972841E+02 1.972841E+02 3.700444E+11
             (001,51,10)  7.791536E-05 6.166151E-04 5.950017E-03 2.548405E-02
      144     0 04:48:00  1.502761E-05 1.972841E+02 1.972841E+02 3.700444E+11
             (001,51,10)  7.957212E-05 6.255213E-04 6.020386E-03 2.577902E-02
      145     0 04:50:00  1.535846E-05 1.972841E+02 1.972841E+02 3.700444E+11
             (001,51,10)  8.124882E-05 6.344760E-04 6.090854E-03 2.607550E-02
      146     0 04:52:00  1.569408E-05 1.972841E+02 1.972841E+02 3.700444E+11
             (001,51,10)  8.294551E-05 6.434796E-04 6.161430E-03 2.637352E-02
      147     0 04:54:00  1.603450E-05 1.972841E+02 1.972841E+02 3.700444E+11
             (001,51,10)  8.466216E-05 6.525321E-04 6.232120E-03 2.667307E-02
      148     0 04:56:00  1.637972E-05 1.972841E+02 1.972841E+02 3.700444E+11
             (001,51,10)  8.639861E-05 6.616340E-04 6.302928E-03 2.697414E-02
      149     0 04:58:00  1.672978E-05 1.972841E+02 1.972841E+02 3.700444E+11
             (001,51,10)  8.815446E-05 6.707879E-04 6.373871E-03 2.727672E-02
      150     0 05:00:00  1.708469E-05 1.972841E+02 1.972841E+02 3.700444E+11
             (001,51,10)  8.992915E-05 6.799982E-04 6.444986E-03 2.758097E-02
      151     0 05:02:00  1.744447E-05 1.972841E+02 1.972841E+02 3.700444E+11
             (001,51,10)  9.172197E-05 6.892710E-04 6.516335E-03 2.788668E-02
      152     0 05:04:00  1.780914E-05 1.972841E+02 1.972841E+02 3.700444E+11
             (001,51,10)  9.353222E-05 6.986119E-04 6.587991E-03 2.819387E-02
      153     0 05:06:00  1.817872E-05 1.972841E+02 1.972841E+02 3.700444E+11
             (001,51,10)  9.535927E-05 7.080250E-04 6.660028E-03 2.850284E-02
      154     0 05:08:00  1.855321E-05 1.972841E+02 1.972841E+02 3.700444E+11
             (001,51,09)  8.234043E-05 7.249317E-04 6.741037E-03 2.881324E-02
      155     0 05:10:00  1.893265E-05 1.972840E+02 1.972841E+02 3.700444E+11
             (001,51,09)  8.408594E-05 7.345523E-04 6.815201E-03 2.912551E-02
      156     0 05:12:00  1.931704E-05 1.972840E+02 1.972841E+02 3.700444E+11
             (001,51,09)  8.584712E-05 7.442496E-04 6.889877E-03 2.943933E-02
      157     0 05:14:00  1.970640E-05 1.972840E+02 1.972841E+02 3.700444E+11
             (001,51,09)  8.762385E-05 7.540249E-04 6.965083E-03 2.975462E-02
      158     0 05:16:00  2.010075E-05 1.972840E+02 1.972841E+02 3.700444E+11
             (001,51,09)  8.941620E-05 7.638787E-04 7.040835E-03 3.007174E-02
      159     0 05:18:00  2.050009E-05 1.972840E+02 1.972841E+02 3.700444E+11
             (001,51,09)  9.122445E-05 7.738101E-04 7.117134E-03 3.039017E-02
      160     0 05:20:00  2.090445E-05 1.972840E+02 1.972841E+02 3.700444E+11
             (001,51,09)  9.304917E-05 7.838152E-04 7.193960E-03 3.070987E-02
      161     0 05:22:00  2.131384E-05 1.972840E+02 1.972841E+02 3.700444E+11
             (001,51,09)  9.489115E-05 7.938879E-04 7.271264E-03 3.103094E-02
      162     0 05:24:00  2.172827E-05 1.972840E+02 1.972841E+02 3.700444E+11
             (001,51,09)  9.675132E-05 8.040209E-04 7.348972E-03 3.135361E-02
      163     0 05:26:00  2.214775E-05 1.972840E+02 1.972841E+02 3.700444E+11
             (001,51,09)  9.863061E-05 8.142074E-04 7.426993E-03 3.167751E-02
      164     0 05:28:00  2.257230E-05 1.972840E+02 1.972841E+02 3.700444E+11
             (001,51,09)  1.005299E-04 8.244417E-04 7.505241E-03 3.200268E-02
      165     0 05:30:00  2.300192E-05 1.972840E+02 1.972841E+02 3.700444E+11
             (001,51,09)  1.024499E-04 8.347197E-04 7.583641E-03 3.232915E-02
      166     0 05:32:00  2.343664E-05 1.972840E+02 1.972841E+02 3.700444E+11
             (001,51,09)  1.043912E-04 8.450390E-04 7.662135E-03 3.265696E-02
      167     0 05:34:00  2.387646E-05 1.972840E+02 1.972841E+02 3.700444E+11
             (001,51,09)  1.063541E-04 8.553980E-04 7.740686E-03 3.298613E-02
      168     0 05:36:00  2.432139E-05 1.972840E+02 1.972841E+02 3.700444E+11
             (001,51,09)  1.083386E-04 8.657963E-04 7.819273E-03 3.331670E-02
      169     0 05:38:00  2.477144E-05 1.972840E+02 1.972841E+02 3.700444E+11
             (001,51,09)  1.103445E-04 8.762356E-04 7.897894E-03 3.364865E-02
      170     0 05:40:00  2.522663E-05 1.972840E+02 1.972841E+02 3.700444E+11
             (001,51,09)  1.123712E-04 8.867196E-04 7.976574E-03 3.398197E-02
      171     0 05:42:00  2.568697E-05 1.972840E+02 1.972841E+02 3.700444E+11
             (001,51,09)  1.144179E-04 8.972539E-04 8.055363E-03 3.431666E-02
      172     0 05:44:00  2.615246E-05 1.972840E+02 1.972841E+02 3.700444E+11
             (001,51,09)  1.164834E-04 9.078453E-04 8.134336E-03 3.465268E-02
      173     0 05:46:00  2.662312E-05 1.972840E+02 1.972841E+02 3.700444E+11
             (001,51,09)  1.185669E-04 9.184997E-04 8.213577E-03 3.499005E-02
      174     0 05:48:00  2.709895E-05 1.972840E+02 1.972841E+02 3.700444E+11
             (001,51,09)  1.206673E-04 9.292225E-04 8.293170E-03 3.532881E-02
      175     0 05:50:00  2.757997E-05 1.972840E+02 1.972841E+02 3.700444E+11
             (001,51,09)  1.227839E-04 9.400169E-04 8.373186E-03 3.566901E-02
      176     0 05:52:00  2.806619E-05 1.972840E+02 1.972841E+02 3.700444E+11
             (001,51,09)  1.249163E-04 9.508851E-04 8.453676E-03 3.601074E-02
      177     0 05:54:00  2.855762E-05 1.972840E+02 1.972841E+02 3.700444E+11
             (001,51,09)  1.270645E-04 9.618272E-04 8.534669E-03 3.635424E-02
      178     0 05:56:00  2.905426E-05 1.972840E+02 1.972841E+02 3.700444E+11
             (001,51,09)  1.292289E-04 9.728414E-04 8.616169E-03 3.669940E-02
      179     0 05:58:00  2.955612E-05 1.972840E+02 1.972841E+02 3.700444E+11
             (001,51,09)  1.314102E-04 9.839233E-04 8.698147E-03 3.704620E-02
      180     0 06:00:00  3.006323E-05 1.972840E+02 1.972841E+02 3.700444E+11
             (001,51,09)  1.336095E-04 9.950664E-04 8.780545E-03 3.739469E-02
      181     0 06:02:00  3.057558E-05 1.972840E+02 1.972841E+02 3.700444E+11
             (001,51,09)  1.358283E-04 1.006263E-03 8.863277E-03 3.774489E-02
      182     0 06:04:00  3.109318E-05 1.972840E+02 1.972841E+02 3.700444E+11
             (001,51,09)  1.380678E-04 1.017505E-03 8.946239E-03 3.809677E-02
      183     0 06:06:00  3.161605E-05 1.972840E+02 1.972841E+02 3.700444E+11
             (001,51,09)  1.403294E-04 1.028785E-03 9.029328E-03 3.845037E-02
      184     0 06:08:00  3.214420E-05 1.972840E+02 1.972841E+02 3.700444E+11
             (001,51,09)  1.426139E-04 1.040098E-03 9.112448E-03 3.880560E-02
      185     0 06:10:00  3.267763E-05 1.972840E+02 1.972841E+02 3.700444E+11
             (001,51,09)  1.449218E-04 1.051442E-03 9.195531E-03 3.916235E-02
      186     0 06:12:00  3.321636E-05 1.972840E+02 1.972841E+02 3.700444E+11
             (001,51,08)  1.305816E-04 1.071093E-03 9.287467E-03 3.952057E-02
      187     0 06:14:00  3.376040E-05 1.972840E+02 1.972841E+02 3.700444E+11
             (001,51,08)  1.328314E-04 1.082537E-03 9.371824E-03 3.988025E-02
      188     0 06:16:00  3.430974E-05 1.972840E+02 1.972841E+02 3.700444E+11
             (001,51,08)  1.351030E-04 1.094017E-03 9.456170E-03 4.024140E-02
      189     0 06:18:00  3.486441E-05 1.972840E+02 1.972841E+02 3.700444E+11
             (001,51,08)  1.373951E-04 1.105539E-03 9.540566E-03 4.060402E-02
      190     0 06:20:00  3.542442E-05 1.972840E+02 1.972841E+02 3.700444E+11
             (001,51,08)  1.397064E-04 1.117111E-03 9.625092E-03 4.096813E-02
      191     0 06:22:00  3.598977E-05 1.972840E+02 1.972841E+02 3.700444E+11
             (001,51,08)  1.420359E-04 1.128738E-03 9.709834E-03 4.133373E-02
      192     0 06:24:00  3.656047E-05 1.972840E+02 1.972841E+02 3.700444E+11
             (001,51,08)  1.443828E-04 1.140423E-03 9.794862E-03 4.170087E-02
      193     0 06:26:00  3.713654E-05 1.972840E+02 1.972841E+02 3.700444E+11
             (001,51,08)  1.467470E-04 1.152167E-03 9.880219E-03 4.206959E-02
      194     0 06:28:00  3.771798E-05 1.972840E+02 1.972841E+02 3.700444E+11
             (001,51,08)  1.491290E-04 1.163966E-03 9.965911E-03 4.243961E-02
      195     0 06:30:00  3.830480E-05 1.972840E+02 1.972841E+02 3.700444E+11
             (001,51,08)  1.515299E-04 1.175816E-03 1.005190E-02 4.281090E-02
      196     0 06:32:00  3.889701E-05 1.972840E+02 1.972841E+02 3.700444E+11
             (001,51,08)  1.539512E-04 1.187710E-03 1.013814E-02 4.318347E-02
      197     0 06:34:00  3.949463E-05 1.972840E+02 1.972841E+02 3.700444E+11
             (001,51,08)  1.563942E-04 1.199643E-03 1.022453E-02 4.355733E-02
      198     0 06:36:00  4.009765E-05 1.972840E+02 1.972841E+02 3.700444E+11
             (001,51,08)  1.588602E-04 1.211611E-03 1.031101E-02 4.393253E-02
      199     0 06:38:00  4.070609E-05 1.972840E+02 1.972841E+02 3.700444E+11
             (001,51,08)  1.613500E-04 1.223613E-03 1.039752E-02 4.430906E-02
      200     0 06:40:00  4.131995E-05 1.972840E+02 1.972841E+02 3.700444E+11
             (001,51,08)  1.638636E-04 1.235650E-03 1.048403E-02 4.468690E-02
      201     0 06:42:00  4.193925E-05 1.972840E+02 1.972841E+02 3.700444E+11
             (001,51,08)  1.664004E-04 1.247730E-03 1.057059E-02 4.506599E-02
      202     0 06:44:00  4.256399E-05 1.972840E+02 1.972841E+02 3.700444E+11
             (001,51,08)  1.689591E-04 1.259859E-03 1.065725E-02 4.544625E-02
      203     0 06:46:00  4.319418E-05 1.972840E+02 1.972841E+02 3.700444E+11
             (001,51,08)  1.715379E-04 1.272047E-03 1.074411E-02 4.582759E-02
      204     0 06:48:00  4.382982E-05 1.972840E+02 1.972841E+02 3.700444E+11
             (001,51,08)  1.741353E-04 1.284301E-03 1.083130E-02 4.620989E-02
      205     0 06:50:00  4.447093E-05 1.972840E+02 1.972841E+02 3.700444E+11
             (001,51,08)  1.767497E-04 1.296628E-03 1.091891E-02 4.659309E-02
      206     0 06:52:00  4.511750E-05 1.972840E+02 1.972841E+02 3.700444E+11
             (001,51,08)  1.793804E-04 1.309030E-03 1.100702E-02 4.697711E-02
      207     0 06:54:00  4.576955E-05 1.972840E+02 1.972841E+02 3.700444E+11
             (001,51,08)  1.820271E-04 1.321506E-03 1.109567E-02 4.736191E-02
      208     0 06:56:00  4.642707E-05 1.972840E+02 1.972841E+02 3.700444E+11
             (001,51,08)  1.846907E-04 1.334052E-03 1.118486E-02 4.774748E-02
      209     0 06:58:00  4.709009E-05 1.972840E+02 1.972841E+02 3.700444E+11
             (001,51,08)  1.873721E-04 1.346662E-03 1.127454E-02 4.813377E-02
      210     0 07:00:00  4.775859E-05 1.972840E+02 1.972841E+02 3.700444E+11
             (001,51,08)  1.900729E-04 1.359329E-03 1.136463E-02 4.852079E-02
      211     0 07:02:00  4.843258E-05 1.972840E+02 1.972841E+02 3.700444E+11
             (001,51,08)  1.927942E-04 1.372049E-03 1.145505E-02 4.890851E-02
      212     0 07:04:00  4.911208E-05 1.972840E+02 1.972841E+02 3.700444E+11
             (001,51,08)  1.955366E-04 1.384821E-03 1.154575E-02 4.929701E-02
      213     0 07:06:00  4.979707E-05 1.972840E+02 1.972841E+02 3.700444E+11
             (001,51,08)  1.983003E-04 1.397647E-03 1.163670E-02 4.968657E-02
      214     0 07:08:00  5.048758E-05 1.972840E+02 1.972841E+02 3.700444E+11
             (001,51,08)  2.010844E-04 1.410530E-03 1.172793E-02 5.007689E-02
      215     0 07:10:00  5.118359E-05 1.972840E+02 1.972841E+02 3.700444E+11
             (001,51,08)  2.038879E-04 1.423477E-03 1.181949E-02 5.046802E-02
      216     0 07:12:00  5.188511E-05 1.972840E+02 1.972841E+02 3.700444E+11
             (001,51,08)  2.067094E-04 1.436491E-03 1.191144E-02 5.086038E-02
      217     0 07:14:00  5.259214E-05 1.972840E+02 1.972841E+02 3.700444E+11
             (001,51,08)  2.095477E-04 1.449574E-03 1.200383E-02 5.125368E-02
      218     0 07:16:00  5.330468E-05 1.972840E+02 1.972841E+02 3.700444E+11
             (001,51,07)  1.945760E-04 1.470664E-03 1.210782E-02 5.164802E-02
      219     0 07:18:00  5.402274E-05 1.972840E+02 1.972841E+02 3.700444E+11
             (001,51,07)  1.973508E-04 1.483887E-03 1.220272E-02 5.204336E-02
      220     0 07:20:00  5.474631E-05 1.972840E+02 1.972841E+02 3.700444E+11
             (001,51,07)  2.001429E-04 1.497167E-03 1.229806E-02 5.243963E-02
      221     0 07:22:00  5.547540E-05 1.972840E+02 1.972841E+02 3.700444E+11
             (001,51,07)  2.029537E-04 1.510497E-03 1.239377E-02 5.283682E-02
      222     0 07:24:00  5.620999E-05 1.972840E+02 1.972841E+02 3.700444E+11
             (001,51,07)  2.057848E-04 1.523869E-03 1.248977E-02 5.323473E-02
      223     0 07:26:00  5.695010E-05 1.972840E+02 1.972841E+02 3.700444E+11
             (001,51,07)  2.086375E-04 1.537278E-03 1.258595E-02 5.363342E-02
      224     0 07:28:00  5.769571E-05 1.972840E+02 1.972841E+02 3.700444E+11
             (001,51,07)  2.115126E-04 1.550719E-03 1.268225E-02 5.403269E-02
      225     0 07:30:00  5.844683E-05 1.972840E+02 1.972841E+02 3.700444E+11
             (001,51,07)  2.144100E-04 1.564192E-03 1.277863E-02 5.443252E-02
      226     0 07:32:00  5.920344E-05 1.972840E+02 1.972841E+02 3.700444E+11
             (001,51,07)  2.173292E-04 1.577698E-03 1.287506E-02 5.483300E-02
      227     0 07:34:00  5.996556E-05 1.972840E+02 1.972840E+02 3.700444E+11
             (001,51,07)  2.202692E-04 1.591239E-03 1.297158E-02 5.523401E-02
      228     0 07:36:00  6.073316E-05 1.972840E+02 1.972840E+02 3.700444E+11
             (001,51,07)  2.232291E-04 1.604817E-03 1.306820E-02 5.563547E-02
      229     0 07:38:00  6.150625E-05 1.972840E+02 1.972840E+02 3.700444E+11
             (001,51,07)  2.262082E-04 1.618434E-03 1.316496E-02 5.603759E-02
      230     0 07:40:00  6.228482E-05 1.972840E+02 1.972840E+02 3.700444E+11
             (001,51,07)  2.292065E-04 1.632089E-03 1.326189E-02 5.644038E-02
      231     0 07:42:00  6.306886E-05 1.972840E+02 1.972840E+02 3.700444E+11
             (001,51,07)  2.322242E-04 1.645781E-03 1.335897E-02 5.684406E-02
      232     0 07:44:00  6.385837E-05 1.972840E+02 1.972840E+02 3.700444E+11
             (001,51,07)  2.352623E-04 1.659509E-03 1.345620E-02 5.724991E-02
      233     0 07:46:00  6.465333E-05 1.972840E+02 1.972840E+02 3.700444E+11
             (001,51,07)  2.383214E-04 1.673274E-03 1.355358E-02 5.765806E-02
      234     0 07:48:00  6.545375E-05 1.972840E+02 1.972840E+02 3.700444E+11
             (001,51,07)  2.414018E-04 1.687078E-03 1.365109E-02 5.806706E-02
      235     0 07:50:00  6.625960E-05 1.972840E+02 1.972840E+02 3.700444E+11
             (001,51,07)  2.445036E-04 1.700923E-03 1.374875E-02 5.847661E-02
      236     0 07:52:00  6.707088E-05 1.972840E+02 1.972840E+02 3.700444E+11
             (001,51,07)  2.476261E-04 1.714814E-03 1.384659E-02 5.888647E-02
      237     0 07:54:00  6.788757E-05 1.972840E+02 1.972840E+02 3.700444E+11
             (001,51,07)  2.507681E-04 1.728753E-03 1.394466E-02 5.929674E-02
      238     0 07:56:00  6.870968E-05 1.972840E+02 1.972840E+02 3.700444E+11
             (001,51,07)  2.539288E-04 1.742743E-03 1.404300E-02 5.970725E-02
      239     0 07:58:00  6.953717E-05 1.972840E+02 1.972840E+02 3.700444E+11
             (001,51,07)  2.571073E-04 1.756786E-03 1.414165E-02 6.011804E-02
      240     0 08:00:00  7.037006E-05 1.972840E+02 1.972840E+02 3.700444E+11
             (001,51,07)  2.603033E-04 1.770883E-03 1.424064E-02 6.052920E-02
      241     0 08:02:00  7.120831E-05 1.972840E+02 1.972840E+02 3.700444E+11
             (001,51,07)  2.635169E-04 1.785033E-03 1.433998E-02 6.094066E-02
      242     0 08:04:00  7.205191E-05 1.972840E+02 1.972840E+02 3.700444E+11
             (001,51,07)  2.667488E-04 1.799237E-03 1.443968E-02 6.135254E-02
      243     0 08:06:00  7.290087E-05 1.972840E+02 1.972840E+02 3.700444E+11
             (001,51,07)  2.699995E-04 1.813495E-03 1.453972E-02 6.176486E-02
      244     0 08:08:00  7.375515E-05 1.972840E+02 1.972840E+02 3.700444E+11
             (001,51,07)  2.732694E-04 1.827806E-03 1.464011E-02 6.217752E-02
      245     0 08:10:00  7.461475E-05 1.972840E+02 1.972840E+02 3.700444E+11
             (001,51,07)  2.765585E-04 1.842172E-03 1.474084E-02 6.259044E-02
      246     0 08:12:00  7.547966E-05 1.972840E+02 1.972840E+02 3.700444E+11
             (001,51,07)  2.798667E-04 1.856592E-03 1.484192E-02 6.300350E-02
      247     0 08:14:00  7.634985E-05 1.972840E+02 1.972840E+02 3.700444E+11
             (001,51,07)  2.831935E-04 1.871066E-03 1.494335E-02 6.341666E-02
      248     0 08:16:00  7.722532E-05 1.972840E+02 1.972840E+02 3.700444E+11
             (001,51,07)  2.865385E-04 1.885591E-03 1.504512E-02 6.382984E-02
      249     0 08:18:00  7.810605E-05 1.972840E+02 1.972840E+02 3.700444E+11
             (001,51,07)  2.899018E-04 1.900164E-03 1.514722E-02 6.424299E-02
      250     0 08:20:00  7.899202E-05 1.972840E+02 1.972840E+02 3.700444E+11
             (001,51,07)  2.932836E-04 1.914782E-03 1.524962E-02 6.465605E-02
      251     0 08:22:00  7.988323E-05 1.972840E+02 1.972840E+02 3.700444E+11
             (001,51,07)  2.966846E-04 1.929440E-03 1.535228E-02 6.506903E-02
      252     0 08:24:00  8.077965E-05 1.972840E+02 1.972840E+02 3.700444E+11
             (001,51,07)  3.001057E-04 1.944136E-03 1.545516E-02 6.548178E-02
      253     0 08:26:00  8.168127E-05 1.972840E+02 1.972840E+02 3.700444E+11
             (001,51,07)  3.035476E-04 1.958867E-03 1.555820E-02 6.589423E-02
      254     0 08:28:00  8.258808E-05 1.972840E+02 1.972840E+02 3.700444E+11
             (001,51,06)  2.882691E-04 1.979390E-03 1.567576E-02 6.630636E-02
      255     0 08:30:00  8.350006E-05 1.972840E+02 1.972840E+02 3.700444E+11
             (001,51,06)  2.916612E-04 1.994146E-03 1.578062E-02 6.671827E-02
      256     0 08:32:00  8.441720E-05 1.972840E+02 1.972840E+02 3.700444E+11
             (001,51,06)  2.950739E-04 2.008932E-03 1.588559E-02 6.713000E-02
      257     0 08:34:00  8.533948E-05 1.972840E+02 1.972840E+02 3.700444E+11
             (001,51,06)  2.985065E-04 2.023747E-03 1.599066E-02 6.754165E-02
      258     0 08:36:00  8.626689E-05 1.972840E+02 1.972840E+02 3.700444E+11
             (001,51,06)  3.019589E-04 2.038591E-03 1.609585E-02 6.795339E-02
      259     0 08:38:00  8.719941E-05 1.972840E+02 1.972840E+02 3.700444E+11
             (001,51,06)  3.054308E-04 2.053467E-03 1.620116E-02 6.836524E-02
      260     0 08:40:00  8.813704E-05 1.972840E+02 1.972840E+02 3.700444E+11
             (001,51,06)  3.089223E-04 2.068374E-03 1.630660E-02 6.877716E-02
      261     0 08:42:00  8.907974E-05 1.972839E+02 1.972840E+02 3.700444E+11
             (001,51,06)  3.124334E-04 2.083316E-03 1.641219E-02 6.918872E-02
      262     0 08:44:00  9.002753E-05 1.972839E+02 1.972840E+02 3.700444E+11
             (001,51,06)  3.159640E-04 2.098296E-03 1.651796E-02 6.959996E-02
      263     0 08:46:00  9.098037E-05 1.972839E+02 1.972840E+02 3.700444E+11
             (001,51,06)  3.195139E-04 2.113316E-03 1.662392E-02 7.001080E-02
      264     0 08:48:00  9.193826E-05 1.972839E+02 1.972840E+02 3.700444E+11
             (001,51,06)  3.230824E-04 2.128379E-03 1.673012E-02 7.042115E-02
      265     0 08:50:00  9.290118E-05 1.972839E+02 1.972840E+02 3.700444E+11
             (001,51,06)  3.266688E-04 2.143487E-03 1.683659E-02 7.083105E-02
      266     0 08:52:00  9.386913E-05 1.972839E+02 1.972840E+02 3.700444E+11
             (001,51,06)  3.302725E-04 2.158643E-03 1.694336E-02 7.124054E-02
      267     0 08:54:00  9.484208E-05 1.972839E+02 1.972840E+02 3.700444E+11
             (001,51,06)  3.338930E-04 2.173847E-03 1.705045E-02 7.164983E-02
      268     0 08:56:00  9.582004E-05 1.972839E+02 1.972840E+02 3.700444E+11
             (001,51,06)  3.375302E-04 2.189100E-03 1.715789E-02 7.205880E-02
      269     0 08:58:00  9.680298E-05 1.972839E+02 1.972840E+02 3.700444E+11
             (001,51,06)  3.411842E-04 2.204402E-03 1.726566E-02 7.246751E-02
      270     0 09:00:00  9.779089E-05 1.972839E+02 1.972840E+02 3.700444E+11
             (001,51,06)  3.448553E-04 2.219751E-03 1.737378E-02 7.287600E-02
      271     0 09:02:00  9.878378E-05 1.972839E+02 1.972840E+02 3.700444E+11
             (001,51,06)  3.485435E-04 2.235146E-03 1.748224E-02 7.328418E-02
      272     0 09:04:00  9.978161E-05 1.972839E+02 1.972840E+02 3.700444E+11
             (001,51,06)  3.522491E-04 2.250585E-03 1.759101E-02 7.369204E-02
      273     0 09:06:00  1.007844E-04 1.972839E+02 1.972840E+02 3.700444E+11
             (001,51,06)  3.559719E-04 2.266064E-03 1.770006E-02 7.409960E-02
      274     0 09:08:00  1.017921E-04 1.972839E+02 1.972840E+02 3.700444E+11
             (001,51,06)  3.597120E-04 2.281580E-03 1.780939E-02 7.450685E-02
      275     0 09:10:00  1.028048E-04 1.972839E+02 1.972840E+02 3.700444E+11
             (001,51,06)  3.634694E-04 2.297131E-03 1.791894E-02 7.491382E-02
      276     0 09:12:00  1.038224E-04 1.972839E+02 1.972840E+02 3.700444E+11
             (001,51,06)  3.672445E-04 2.312713E-03 1.802870E-02 7.532052E-02
      277     0 09:14:00  1.048449E-04 1.972839E+02 1.972840E+02 3.700444E+11
             (001,51,06)  3.710377E-04 2.328324E-03 1.813863E-02 7.572695E-02
      278     0 09:16:00  1.058723E-04 1.972839E+02 1.972840E+02 3.700444E+11
             (001,51,06)  3.748494E-04 2.343963E-03 1.824871E-02 7.613324E-02
      279     0 09:18:00  1.069046E-04 1.972839E+02 1.972840E+02 3.700444E+11
             (001,51,06)  3.786798E-04 2.359628E-03 1.835891E-02 7.653945E-02
      280     0 09:20:00  1.079418E-04 1.972839E+02 1.972840E+02 3.700444E+11
             (001,51,06)  3.825292E-04 2.375321E-03 1.846924E-02 7.694553E-02
      281     0 09:22:00  1.089839E-04 1.972839E+02 1.972840E+02 3.700444E+11
             (001,51,06)  3.863974E-04 2.391041E-03 1.857968E-02 7.735132E-02
      282     0 09:24:00  1.100309E-04 1.972839E+02 1.972840E+02 3.700444E+11
             (001,51,06)  3.902841E-04 2.406791E-03 1.869026E-02 7.775683E-02
      283     0 09:26:00  1.110828E-04 1.972839E+02 1.972840E+02 3.700444E+11
             (001,51,06)  3.941890E-04 2.422572E-03 1.880099E-02 7.816198E-02
      284     0 09:28:00  1.121395E-04 1.972839E+02 1.972840E+02 3.700444E+11
             (001,51,06)  3.981119E-04 2.438389E-03 1.891190E-02 7.856673E-02
      285     0 09:30:00  1.132011E-04 1.972839E+02 1.972840E+02 3.700444E+11
             (001,51,06)  4.020524E-04 2.454243E-03 1.902303E-02 7.897110E-02
      286     0 09:32:00  1.142676E-04 1.972839E+02 1.972840E+02 3.700444E+11
             (001,51,06)  4.060105E-04 2.470137E-03 1.913439E-02 7.937514E-02
      287     0 09:34:00  1.153390E-04 1.972839E+02 1.972840E+02 3.700444E+11
             (001,51,06)  4.099857E-04 2.486075E-03 1.924603E-02 7.977883E-02
      288     0 09:36:00  1.164153E-04 1.972839E+02 1.972840E+02 3.700444E+11
             (001,51,06)  4.139777E-04 2.502059E-03 1.935797E-02 8.018212E-02
      289     0 09:38:00  1.174964E-04 1.972839E+02 1.972840E+02 3.700444E+11
             (001,51,06)  4.179861E-04 2.518089E-03 1.947024E-02 8.058497E-02
      290     0 09:40:00  1.185824E-04 1.972839E+02 1.972840E+02 3.700444E+11
             (001,51,06)  4.220102E-04 2.534166E-03 1.958286E-02 8.098740E-02
      291     0 09:42:00  1.196732E-04 1.972839E+02 1.972840E+02 3.700444E+11
             (001,51,06)  4.260499E-04 2.550289E-03 1.969584E-02 8.138940E-02
      292     0 09:44:00  1.207689E-04 1.972839E+02 1.972840E+02 3.700444E+11
             (001,51,06)  4.301051E-04 2.566457E-03 1.980917E-02 8.179100E-02
      293     0 09:46:00  1.218695E-04 1.972839E+02 1.972840E+02 3.700444E+11
             (001,51,06)  4.341757E-04 2.582668E-03 1.992283E-02 8.219223E-02
      294     0 09:48:00  1.229749E-04 1.972839E+02 1.972840E+02 3.700444E+11
             (001,51,06)  4.382619E-04 2.598919E-03 2.003682E-02 8.259319E-02
      295     0 09:50:00  1.240852E-04 1.972839E+02 1.972840E+02 3.700444E+11
             (001,51,06)  4.423640E-04 2.615208E-03 2.015111E-02 8.299380E-02
      296     0 09:52:00  1.252004E-04 1.972839E+02 1.972840E+02 3.700444E+11
             (001,51,06)  4.464823E-04 2.631531E-03 2.026567E-02 8.339408E-02
      297     0 09:54:00  1.263204E-04 1.972839E+02 1.972840E+02 3.700444E+11
             (001,51,06)  4.506169E-04 2.647886E-03 2.038045E-02 8.379402E-02
      298     0 09:56:00  1.274453E-04 1.972839E+02 1.972840E+02 3.700444E+11
             (001,51,06)  4.547683E-04 2.664267E-03 2.049544E-02 8.419372E-02
      299     0 09:58:00  1.285750E-04 1.972839E+02 1.972840E+02 3.700444E+11
             (001,51,06)  4.589368E-04 2.680672E-03 2.061058E-02 8.459330E-02
      300     0 10:00:00  1.297096E-04 1.972839E+02 1.972840E+02 3.700444E+11
             (001,51,06)  4.631230E-04 2.697096E-03 2.072585E-02 8.499347E-02
      301     0 10:02:00  1.308491E-04 1.972839E+02 1.972840E+02 3.700444E+11
             (001,51,05)  4.471811E-04 2.713235E-03 2.086201E-02 8.539392E-02
      302     0 10:04:00  1.319934E-04 1.972839E+02 1.972840E+02 3.700444E+11
             (001,51,05)  4.513093E-04 2.729571E-03 2.097862E-02 8.579446E-02
      303     0 10:06:00  1.331426E-04 1.972839E+02 1.972840E+02 3.700444E+11
             (001,51,05)  4.554564E-04 2.745911E-03 2.109521E-02 8.619500E-02
      304     0 10:08:00  1.342966E-04 1.972839E+02 1.972840E+02 3.700444E+11
             (001,51,05)  4.596228E-04 2.762251E-03 2.121173E-02 8.659551E-02
      305     0 10:10:00  1.354555E-04 1.972839E+02 1.972840E+02 3.700444E+11
             (001,51,05)  4.638085E-04 2.778588E-03 2.132815E-02 8.699589E-02
      306     0 10:12:00  1.366193E-04 1.972839E+02 1.972840E+02 3.700444E+11
             (001,51,05)  4.680134E-04 2.794924E-03 2.144444E-02 8.739635E-02
      307     0 10:14:00  1.377879E-04 1.972839E+02 1.972840E+02 3.700444E+11
             (001,51,05)  4.722372E-04 2.811258E-03 2.156061E-02 8.779669E-02
      308     0 10:16:00  1.389614E-04 1.972839E+02 1.972841E+02 3.700444E+11
             (001,51,05)  4.764796E-04 2.827594E-03 2.167667E-02 8.819703E-02
      309     0 10:18:00  1.401397E-04 1.972839E+02 1.972841E+02 3.700444E+11
             (001,51,05)  4.807402E-04 2.843937E-03 2.179265E-02 8.859752E-02
      310     0 10:20:00  1.413229E-04 1.972839E+02 1.972841E+02 3.700444E+11
             (001,51,05)  4.850183E-04 2.860290E-03 2.190859E-02 8.899794E-02
      311     0 10:22:00  1.425109E-04 1.972839E+02 1.972841E+02 3.700444E+11
             (001,51,05)  4.893135E-04 2.876658E-03 2.202454E-02 8.939840E-02
      312     0 10:24:00  1.437038E-04 1.972839E+02 1.972841E+02 3.700444E+11
             (001,51,05)  4.936252E-04 2.893044E-03 2.214054E-02 8.979919E-02
      313     0 10:26:00  1.449016E-04 1.972839E+02 1.972841E+02 3.700444E+11
             (001,51,05)  4.979528E-04 2.909450E-03 2.225663E-02 9.019995E-02
      314     0 10:28:00  1.461042E-04 1.972839E+02 1.972841E+02 3.700444E+11
             (001,51,05)  5.022960E-04 2.925877E-03 2.237283E-02 9.060071E-02
      315     0 10:30:00  1.473117E-04 1.972839E+02 1.972841E+02 3.700444E+11
             (001,51,05)  5.066546E-04 2.942326E-03 2.248916E-02 9.100197E-02
      316     0 10:32:00  1.485240E-04 1.972839E+02 1.972841E+02 3.700444E+11
             (001,51,05)  5.110285E-04 2.958796E-03 2.260562E-02 9.140309E-02
      317     0 10:34:00  1.497412E-04 1.972839E+02 1.972841E+02 3.700444E+11
             (001,51,05)  5.154177E-04 2.975287E-03 2.272221E-02 9.180400E-02
      318     0 10:36:00  1.509632E-04 1.972839E+02 1.972841E+02 3.700444E+11
             (001,51,05)  5.198224E-04 2.991798E-03 2.283893E-02 9.220464E-02
      319     0 10:38:00  1.521900E-04 1.972839E+02 1.972841E+02 3.700444E+11
             (001,51,05)  5.242426E-04 3.008329E-03 2.295577E-02 9.260540E-02
      320     0 10:40:00  1.534217E-04 1.972839E+02 1.972841E+02 3.700444E+11
             (001,51,05)  5.286785E-04 3.024881E-03 2.307273E-02 9.300589E-02
      321     0 10:42:00  1.546582E-04 1.972839E+02 1.972841E+02 3.700444E+11
             (001,51,05)  5.331303E-04 3.041454E-03 2.318982E-02 9.340586E-02
      322     0 10:44:00  1.558995E-04 1.972839E+02 1.972841E+02 3.700444E+11
             (001,51,05)  5.375981E-04 3.058049E-03 2.330703E-02 9.380526E-02
      323     0 10:46:00  1.571457E-04 1.972839E+02 1.972841E+02 3.700444E+11
             (001,51,05)  5.420822E-04 3.074665E-03 2.342438E-02 9.420407E-02
      324     0 10:48:00  1.583967E-04 1.972839E+02 1.972841E+02 3.700444E+11
             (001,51,05)  5.465829E-04 3.091301E-03 2.354186E-02 9.460227E-02
      325     0 10:50:00  1.596525E-04 1.972839E+02 1.972841E+02 3.700444E+11
             (001,51,05)  5.511001E-04 3.107957E-03 2.365946E-02 9.499988E-02
      326     0 10:52:00  1.609131E-04 1.972839E+02 1.972841E+02 3.700444E+11
             (001,51,05)  5.556339E-04 3.124632E-03 2.377717E-02 9.539693E-02
      327     0 10:54:00  1.621785E-04 1.972839E+02 1.972841E+02 3.700444E+11
             (001,51,05)  5.601841E-04 3.141326E-03 2.389498E-02 9.579366E-02
      328     0 10:56:00  1.634487E-04 1.972839E+02 1.972841E+02 3.700444E+11
             (001,51,05)  5.647504E-04 3.158038E-03 2.401291E-02 9.619009E-02
      329     0 10:58:00  1.647237E-04 1.972839E+02 1.972841E+02 3.700444E+11
             (001,51,05)  5.693323E-04 3.174769E-03 2.413093E-02 9.658606E-02
      330     0 11:00:00  1.660034E-04 1.972839E+02 1.972841E+02 3.700444E+11
             (001,51,05)  5.739296E-04 3.191520E-03 2.424908E-02 9.698162E-02
      331     0 11:02:00  1.672880E-04 1.972839E+02 1.972841E+02 3.700444E+11
             (001,51,05)  5.785417E-04 3.208292E-03 2.436736E-02 9.737685E-02
      332     0 11:04:00  1.685773E-04 1.972839E+02 1.972841E+02 3.700444E+11
             (001,51,05)  5.831683E-04 3.225085E-03 2.448577E-02 9.777177E-02
      333     0 11:06:00  1.698713E-04 1.972839E+02 1.972841E+02 3.700444E+11
             (001,51,05)  5.878091E-04 3.241899E-03 2.460433E-02 9.816643E-02
      334     0 11:08:00  1.711702E-04 1.972839E+02 1.972841E+02 3.700444E+11
             (001,51,05)  5.924640E-04 3.258733E-03 2.472303E-02 9.856084E-02
      335     0 11:10:00  1.724737E-04 1.972839E+02 1.972841E+02 3.700444E+11
             (001,51,05)  5.971329E-04 3.275586E-03 2.484187E-02 9.895501E-02
      336     0 11:12:00  1.737820E-04 1.972839E+02 1.972841E+02 3.700444E+11
             (001,51,05)  6.018160E-04 3.292455E-03 2.496084E-02 9.934893E-02
      337     0 11:14:00  1.750950E-04 1.972839E+02 1.972841E+02 3.700444E+11
             (001,51,05)  6.065135E-04 3.309339E-03 2.507991E-02 9.974258E-02
      338     0 11:16:00  1.764128E-04 1.972839E+02 1.972841E+02 3.700444E+11
             (001,51,05)  6.112258E-04 3.326234E-03 2.519907E-02 1.001359E-01
      339     0 11:18:00  1.777352E-04 1.972839E+02 1.972841E+02 3.700444E+11
             (001,51,05)  6.159534E-04 3.343137E-03 2.531828E-02 1.005289E-01
      340     0 11:20:00  1.790624E-04 1.972839E+02 1.972841E+02 3.700444E+11
             (001,51,05)  6.206969E-04 3.360047E-03 2.543751E-02 1.009217E-01
      341     0 11:22:00  1.803942E-04 1.972839E+02 1.972841E+02 3.700444E+11
             (001,51,05)  6.254566E-04 3.376958E-03 2.555673E-02 1.013144E-01
      342     0 11:24:00  1.817307E-04 1.972839E+02 1.972841E+02 3.700444E+11
             (001,51,05)  6.302329E-04 3.393869E-03 2.567592E-02 1.017068E-01
      343     0 11:26:00  1.830719E-04 1.972839E+02 1.972841E+02 3.700444E+11
             (001,51,05)  6.350261E-04 3.410778E-03 2.579503E-02 1.020986E-01
      344     0 11:28:00  1.844178E-04 1.972839E+02 1.972841E+02 3.700444E+11
             (001,51,05)  6.398362E-04 3.427682E-03 2.591405E-02 1.024900E-01
      345     0 11:30:00  1.857683E-04 1.972839E+02 1.972841E+02 3.700444E+11
             (001,51,05)  6.446634E-04 3.444580E-03 2.603296E-02 1.028809E-01
      346     0 11:32:00  1.871235E-04 1.972839E+02 1.972841E+02 3.700444E+11
             (001,51,05)  6.495072E-04 3.461472E-03 2.615175E-02 1.032714E-01
      347     0 11:34:00  1.884834E-04 1.972839E+02 1.972841E+02 3.700444E+11
             (001,51,05)  6.543672E-04 3.478360E-03 2.627041E-02 1.036615E-01
      348     0 11:36:00  1.898479E-04 1.972839E+02 1.972841E+02 3.700444E+11
             (001,51,05)  6.592427E-04 3.495245E-03 2.638897E-02 1.040512E-01
      349     0 11:38:00  1.912170E-04 1.972839E+02 1.972841E+02 3.700444E+11
             (001,51,05)  6.641331E-04 3.512130E-03 2.650745E-02 1.044406E-01
      350     0 11:40:00  1.925908E-04 1.972839E+02 1.972841E+02 3.700444E+11
             (001,51,05)  6.690376E-04 3.529020E-03 2.662588E-02 1.048296E-01
      351     0 11:42:00  1.939692E-04 1.972839E+02 1.972841E+02 3.700444E+11
             (001,51,05)  6.739555E-04 3.545917E-03 2.674431E-02 1.052183E-01
      352     0 11:44:00  1.953522E-04 1.972839E+02 1.972841E+02 3.700444E+11
             (001,51,05)  6.788863E-04 3.562825E-03 2.686277E-02 1.056067E-01
      353     0 11:46:00  1.967398E-04 1.972839E+02 1.972841E+02 3.700444E+11
             (001,51,05)  6.838297E-04 3.579746E-03 2.698129E-02 1.059947E-01
      354     0 11:48:00  1.981320E-04 1.972839E+02 1.972841E+02 3.700444E+11
             (001,51,05)  6.887857E-04 3.596681E-03 2.709990E-02 1.063824E-01
      355     0 11:50:00  1.995289E-04 1.972839E+02 1.972841E+02 3.700444E+11
             (001,51,05)  6.937542E-04 3.613629E-03 2.721861E-02 1.067697E-01
      356     0 11:52:00  2.009303E-04 1.972839E+02 1.972841E+02 3.700444E+11
             (001,51,05)  6.987356E-04 3.630590E-03 2.733742E-02 1.071570E-01
      357     0 11:54:00  2.023364E-04 1.972839E+02 1.972841E+02 3.700444E+11
             (001,51,05)  7.037304E-04 3.647562E-03 2.745631E-02 1.075440E-01
      358     0 11:56:00  2.037470E-04 1.972839E+02 1.972841E+02 3.700444E+11
             (001,51,05)  7.087391E-04 3.664540E-03 2.757526E-02 1.079304E-01
      359     0 11:58:00  2.051622E-04 1.972839E+02 1.972841E+02 3.700444E+11
             (001,51,05)  7.137623E-04 3.681524E-03 2.769424E-02 1.083164E-01
      360     0 12:00:00  2.065820E-04 1.972839E+02 1.972841E+02 3.700444E+11
             (001,51,05)  7.188004E-04 3.698510E-03 2.781321E-02 1.087018E-01
      361     0 12:02:00  2.080064E-04 1.972839E+02 1.972841E+02 3.700444E+11
             (001,51,05)  7.238538E-04 3.715495E-03 2.793217E-02 1.090868E-01
      362     0 12:04:00  2.094354E-04 1.972839E+02 1.972841E+02 3.700444E+11
             (001,51,05)  7.289227E-04 3.732479E-03 2.805107E-02 1.094713E-01
      363     0 12:06:00  2.108690E-04 1.972839E+02 1.972841E+02 3.700444E+11
             (001,51,05)  7.340070E-04 3.749459E-03 2.816990E-02 1.098555E-01
      364     0 12:08:00  2.123072E-04 1.972839E+02 1.972841E+02 3.700444E+11
             (001,51,05)  7.391066E-04 3.766435E-03 2.828865E-02 1.102394E-01
      365     0 12:10:00  2.137499E-04 1.972839E+02 1.972841E+02 3.700444E+11
             (001,51,05)  7.442213E-04 3.783406E-03 2.840730E-02 1.106230E-01
      366     0 12:12:00  2.151972E-04 1.972839E+02 1.972841E+02 3.700444E+11
             (001,51,05)  7.493505E-04 3.800373E-03 2.852587E-02 1.110064E-01
      367     0 12:14:00  2.166491E-04 1.972839E+02 1.972841E+02 3.700444E+11
             (001,51,05)  7.544940E-04 3.817337E-03 2.864436E-02 1.113897E-01
      368     0 12:16:00  2.181056E-04 1.972839E+02 1.972841E+02 3.700444E+11
             (001,51,05)  7.596512E-04 3.834298E-03 2.876277E-02 1.117729E-01
      369     0 12:18:00  2.195667E-04 1.972839E+02 1.972841E+02 3.700444E+11
             (001,51,05)  7.648219E-04 3.851259E-03 2.888112E-02 1.121560E-01
      370     0 12:20:00  2.210323E-04 1.972839E+02 1.972841E+02 3.700444E+11
             (001,51,05)  7.700060E-04 3.868218E-03 2.899943E-02 1.125390E-01
      371     0 12:22:00  2.225025E-04 1.972839E+02 1.972841E+02 3.700444E+11
             (001,51,05)  7.752036E-04 3.885177E-03 2.911769E-02 1.129219E-01
      372     0 12:24:00  2.239773E-04 1.972839E+02 1.972841E+02 3.700444E+11
             (001,51,05)  7.804150E-04 3.902132E-03 2.923590E-02 1.133048E-01
      373     0 12:26:00  2.254567E-04 1.972838E+02 1.972841E+02 3.700444E+11
             (001,51,05)  7.856406E-04 3.919083E-03 2.935405E-02 1.136874E-01
      374     0 12:28:00  2.269407E-04 1.972838E+02 1.972841E+02 3.700444E+11
             (001,51,05)  7.908807E-04 3.936027E-03 2.947212E-02 1.140699E-01
      375     0 12:30:00  2.284293E-04 1.972838E+02 1.972841E+02 3.700444E+11
             (001,51,05)  7.961359E-04 3.952962E-03 2.959007E-02 1.144522E-01
      376     0 12:32:00  2.299225E-04 1.972838E+02 1.972841E+02 3.700444E+11
             (001,51,05)  8.014064E-04 3.969887E-03 2.970790E-02 1.148342E-01
      377     0 12:34:00  2.314203E-04 1.972838E+02 1.972841E+02 3.700444E+11
             (001,51,05)  8.066922E-04 3.986802E-03 2.982558E-02 1.152160E-01
      378     0 12:36:00  2.329227E-04 1.972838E+02 1.972841E+02 3.700444E+11
             (001,51,05)  8.119932E-04 4.003708E-03 2.994312E-02 1.155974E-01
      379     0 12:38:00  2.344297E-04 1.972838E+02 1.972841E+02 3.700444E+11
             (001,51,05)  8.173089E-04 4.020606E-03 3.006053E-02 1.159785E-01
      380     0 12:40:00  2.359413E-04 1.972838E+02 1.972841E+02 3.700444E+11
             (001,51,05)  8.226387E-04 4.037498E-03 3.017782E-02 1.163593E-01
      381     0 12:42:00  2.374576E-04 1.972838E+02 1.972841E+02 3.700444E+11
             (001,51,05)  8.279819E-04 4.054388E-03 3.029502E-02 1.167397E-01
      382     0 12:44:00  2.389785E-04 1.972838E+02 1.972841E+02 3.700444E+11
             (001,51,05)  8.333379E-04 4.071278E-03 3.041216E-02 1.171198E-01
      383     0 12:46:00  2.405040E-04 1.972838E+02 1.972841E+02 3.700444E+11
             (001,51,05)  8.387058E-04 4.088169E-03 3.052927E-02 1.174994E-01
      384     0 12:48:00  2.420342E-04 1.972838E+02 1.972841E+02 3.700444E+11
             (001,51,05)  8.440854E-04 4.105063E-03 3.064637E-02 1.178786E-01
      385     0 12:50:00  2.435690E-04 1.972838E+02 1.972841E+02 3.700444E+11
             (001,51,05)  8.494761E-04 4.121960E-03 3.076348E-02 1.182573E-01
      386     0 12:52:00  2.451085E-04 1.972838E+02 1.972841E+02 3.700444E+11
             (001,51,05)  8.548779E-04 4.138860E-03 3.088060E-02 1.186356E-01
      387     0 12:54:00  2.466526E-04 1.972838E+02 1.972841E+02 3.700444E+11
             (001,51,05)  8.602911E-04 4.155761E-03 3.099773E-02 1.190134E-01
      388     0 12:56:00  2.482014E-04 1.972838E+02 1.972841E+02 3.700444E+11
             (001,51,05)  8.657158E-04 4.172663E-03 3.111485E-02 1.193906E-01
      389     0 12:58:00  2.497549E-04 1.972838E+02 1.972841E+02 3.700444E+11
             (001,51,05)  8.711526E-04 4.189563E-03 3.123196E-02 1.197673E-01
      390     0 13:00:00  2.513131E-04 1.972838E+02 1.972841E+02 3.700444E+11
             (001,51,05)  8.766017E-04 4.206458E-03 3.134902E-02 1.201435E-01
      391     0 13:02:00  2.528760E-04 1.972838E+02 1.972841E+02 3.700444E+11
             (001,51,05)  8.820636E-04 4.223348E-03 3.146602E-02 1.205190E-01
      392     0 13:04:00  2.544436E-04 1.972838E+02 1.972841E+02 3.700444E+11
             (001,51,05)  8.875383E-04 4.240231E-03 3.158294E-02 1.208939E-01
      393     0 13:06:00  2.560159E-04 1.972838E+02 1.972841E+02 3.700444E+11
             (001,51,05)  8.930258E-04 4.257108E-03 3.169977E-02 1.212682E-01
      394     0 13:08:00  2.575929E-04 1.972838E+02 1.972841E+02 3.700444E+11
             (001,51,05)  8.985257E-04 4.273977E-03 3.181651E-02 1.216418E-01
      395     0 13:10:00  2.591747E-04 1.972838E+02 1.972841E+02 3.700444E+11
             (001,51,05)  9.040376E-04 4.290842E-03 3.193316E-02 1.220147E-01
      396     0 13:12:00  2.607611E-04 1.972838E+02 1.972841E+02 3.700444E+11
             (001,51,05)  9.095609E-04 4.307704E-03 3.204974E-02 1.223868E-01
      397     0 13:14:00  2.623524E-04 1.972838E+02 1.972841E+02 3.700444E+11
             (001,51,05)  9.150951E-04 4.324563E-03 3.216627E-02 1.227581E-01
      398     0 13:16:00  2.639483E-04 1.972838E+02 1.972841E+02 3.700444E+11
[...]
     7089     9 20:18:00  6.701293E-03 1.972823E+02 1.972890E+02 3.700444E+11
             (001,45,12)  3.811168E-03 5.679485E-02 1.065528E-01 5.289405E-01
     7090     9 20:20:00  6.701311E-03 1.972823E+02 1.972890E+02 3.700444E+11
             (001,45,12)  3.811166E-03 5.679485E-02 1.065528E-01 5.289406E-01
     7091     9 20:22:00  6.701329E-03 1.972823E+02 1.972890E+02 3.700444E+11
             (001,45,12)  3.811163E-03 5.679484E-02 1.065529E-01 5.289406E-01
     7092     9 20:24:00  6.701347E-03 1.972823E+02 1.972890E+02 3.700444E+11
             (001,45,12)  3.811160E-03 5.679484E-02 1.065529E-01 5.289407E-01
     7093     9 20:26:00  6.701365E-03 1.972823E+02 1.972890E+02 3.700444E+11
             (001,45,12)  3.811158E-03 5.679484E-02 1.065529E-01 5.289407E-01
     7094     9 20:28:00  6.701383E-03 1.972823E+02 1.972890E+02 3.700444E+11
             (001,45,12)  3.811155E-03 5.679483E-02 1.065529E-01 5.289407E-01
     7095     9 20:30:00  6.701401E-03 1.972823E+02 1.972890E+02 3.700444E+11
             (001,45,12)  3.811153E-03 5.679483E-02 1.065529E-01 5.289408E-01
     7096     9 20:32:00  6.701418E-03 1.972823E+02 1.972890E+02 3.700444E+11
             (001,45,12)  3.811150E-03 5.679483E-02 1.065529E-01 5.289408E-01
     7097     9 20:34:00  6.701436E-03 1.972823E+02 1.972890E+02 3.700444E+11
             (001,45,12)  3.811148E-03 5.679482E-02 1.065529E-01 5.289409E-01
     7098     9 20:36:00  6.701454E-03 1.972823E+02 1.972890E+02 3.700444E+11
             (001,45,12)  3.811145E-03 5.679482E-02 1.065529E-01 5.289409E-01
     7099     9 20:38:00  6.701472E-03 1.972823E+02 1.972890E+02 3.700444E+11
             (001,45,12)  3.811143E-03 5.679481E-02 1.065529E-01 5.289409E-01
     7100     9 20:40:00  6.701490E-03 1.972823E+02 1.972890E+02 3.700444E+11
             (001,45,12)  3.811140E-03 5.679481E-02 1.065530E-01 5.289410E-01
     7101     9 20:42:00  6.701507E-03 1.972823E+02 1.972890E+02 3.700444E+11
             (001,45,12)  3.811138E-03 5.679480E-02 1.065530E-01 5.289410E-01
     7102     9 20:44:00  6.701525E-03 1.972823E+02 1.972890E+02 3.700444E+11
             (001,45,12)  3.811135E-03 5.679480E-02 1.065530E-01 5.289410E-01
     7103     9 20:46:00  6.701543E-03 1.972823E+02 1.972890E+02 3.700444E+11
             (001,45,12)  3.811133E-03 5.679479E-02 1.065530E-01 5.289411E-01
     7104     9 20:48:00  6.701561E-03 1.972823E+02 1.972890E+02 3.700444E+11
             (001,45,12)  3.811130E-03 5.679479E-02 1.065530E-01 5.289411E-01
     7105     9 20:50:00  6.701578E-03 1.972823E+02 1.972890E+02 3.700444E+11
             (001,45,12)  3.811128E-03 5.679478E-02 1.065530E-01 5.289411E-01
     7106     9 20:52:00  6.701596E-03 1.972823E+02 1.972890E+02 3.700444E+11
             (001,45,12)  3.811126E-03 5.679478E-02 1.065530E-01 5.289412E-01
     7107     9 20:54:00  6.701614E-03 1.972823E+02 1.972890E+02 3.700444E+11
             (001,45,12)  3.811123E-03 5.679477E-02 1.065530E-01 5.289412E-01
     7108     9 20:56:00  6.701632E-03 1.972823E+02 1.972890E+02 3.700444E+11
             (001,45,12)  3.811121E-03 5.679477E-02 1.065530E-01 5.289412E-01
     7109     9 20:58:00  6.701649E-03 1.972823E+02 1.972890E+02 3.700444E+11
             (001,45,12)  3.811118E-03 5.679476E-02 1.065530E-01 5.289412E-01
     7110     9 21:00:00  6.701667E-03 1.972823E+02 1.972890E+02 3.700444E+11
             (001,45,12)  3.811116E-03 5.679476E-02 1.065530E-01 5.289413E-01
     7111     9 21:02:00  6.701685E-03 1.972823E+02 1.972890E+02 3.700444E+11
             (001,45,12)  3.811114E-03 5.679475E-02 1.065530E-01 5.289413E-01
     7112     9 21:04:00  6.701702E-03 1.972823E+02 1.972890E+02 3.700444E+11
             (001,45,12)  3.811111E-03 5.679475E-02 1.065530E-01 5.289413E-01
     7113     9 21:06:00  6.701720E-03 1.972823E+02 1.972890E+02 3.700444E+11
             (001,45,12)  3.811109E-03 5.679474E-02 1.065530E-01 5.289413E-01
     7114     9 21:08:00  6.701737E-03 1.972823E+02 1.972890E+02 3.700444E+11
             (001,45,12)  3.811107E-03 5.679473E-02 1.065530E-01 5.289414E-01
     7115     9 21:10:00  6.701755E-03 1.972823E+02 1.972890E+02 3.700444E+11
             (001,45,12)  3.811104E-03 5.679473E-02 1.065531E-01 5.289414E-01
     7116     9 21:12:00  6.701773E-03 1.972823E+02 1.972890E+02 3.700444E+11
             (001,45,12)  3.811102E-03 5.679472E-02 1.065531E-01 5.289414E-01
     7117     9 21:14:00  6.701790E-03 1.972823E+02 1.972890E+02 3.700444E+11
             (001,45,12)  3.811100E-03 5.679471E-02 1.065531E-01 5.289414E-01
     7118     9 21:16:00  6.701808E-03 1.972823E+02 1.972890E+02 3.700444E+11
             (001,45,12)  3.811098E-03 5.679471E-02 1.065531E-01 5.289414E-01
     7119     9 21:18:00  6.701825E-03 1.972823E+02 1.972890E+02 3.700444E+11
             (001,45,12)  3.811095E-03 5.679470E-02 1.065531E-01 5.289414E-01
     7120     9 21:20:00  6.701843E-03 1.972823E+02 1.972890E+02 3.700444E+11
             (001,45,12)  3.811093E-03 5.679469E-02 1.065531E-01 5.289415E-01
     7121     9 21:22:00  6.701860E-03 1.972823E+02 1.972890E+02 3.700444E+11
             (001,45,12)  3.811091E-03 5.679469E-02 1.065531E-01 5.289415E-01
     7122     9 21:24:00  6.701878E-03 1.972823E+02 1.972890E+02 3.700444E+11
             (001,45,12)  3.811089E-03 5.679468E-02 1.065531E-01 5.289415E-01
     7123     9 21:26:00  6.701895E-03 1.972823E+02 1.972890E+02 3.700444E+11
             (001,45,12)  3.811086E-03 5.679467E-02 1.065531E-01 5.289415E-01
     7124     9 21:28:00  6.701912E-03 1.972823E+02 1.972890E+02 3.700444E+11
             (001,45,12)  3.811084E-03 5.679467E-02 1.065531E-01 5.289415E-01
     7125     9 21:30:00  6.701930E-03 1.972823E+02 1.972890E+02 3.700444E+11
             (001,45,12)  3.811082E-03 5.679466E-02 1.065530E-01 5.289415E-01
     7126     9 21:32:00  6.701947E-03 1.972823E+02 1.972890E+02 3.700444E+11
             (001,45,12)  3.811080E-03 5.679465E-02 1.065530E-01 5.289416E-01
     7127     9 21:34:00  6.701965E-03 1.972823E+02 1.972890E+02 3.700444E+11
             (001,45,12)  3.811078E-03 5.679464E-02 1.065530E-01 5.289416E-01
     7128     9 21:36:00  6.701982E-03 1.972823E+02 1.972890E+02 3.700444E+11
             (001,45,12)  3.811076E-03 5.679464E-02 1.065530E-01 5.289416E-01
     7129     9 21:38:00  6.701999E-03 1.972823E+02 1.972890E+02 3.700444E+11
             (001,45,12)  3.811073E-03 5.679463E-02 1.065530E-01 5.289416E-01
     7130     9 21:40:00  6.702017E-03 1.972823E+02 1.972890E+02 3.700444E+11
             (001,45,12)  3.811071E-03 5.679462E-02 1.065530E-01 5.289416E-01
     7131     9 21:42:00  6.702034E-03 1.972823E+02 1.972890E+02 3.700444E+11
             (001,45,12)  3.811069E-03 5.679461E-02 1.065530E-01 5.289416E-01
     7132     9 21:44:00  6.702051E-03 1.972823E+02 1.972890E+02 3.700444E+11
             (001,45,12)  3.811067E-03 5.679460E-02 1.065530E-01 5.289416E-01
     7133     9 21:46:00  6.702069E-03 1.972823E+02 1.972890E+02 3.700444E+11
             (001,45,12)  3.811065E-03 5.679460E-02 1.065530E-01 5.289416E-01
     7134     9 21:48:00  6.702086E-03 1.972823E+02 1.972890E+02 3.700444E+11
             (001,45,12)  3.811063E-03 5.679459E-02 1.065530E-01 5.289416E-01
     7135     9 21:50:00  6.702103E-03 1.972823E+02 1.972890E+02 3.700444E+11
             (001,45,12)  3.811061E-03 5.679458E-02 1.065530E-01 5.289417E-01
     7136     9 21:52:00  6.702120E-03 1.972823E+02 1.972890E+02 3.700444E+11
             (001,45,12)  3.811059E-03 5.679457E-02 1.065530E-01 5.289417E-01
     7137     9 21:54:00  6.702138E-03 1.972823E+02 1.972890E+02 3.700444E+11
             (001,45,12)  3.811057E-03 5.679456E-02 1.065530E-01 5.289417E-01
     7138     9 21:56:00  6.702155E-03 1.972823E+02 1.972890E+02 3.700444E+11
             (001,45,12)  3.811055E-03 5.679456E-02 1.065530E-01 5.289417E-01
     7139     9 21:58:00  6.702172E-03 1.972823E+02 1.972890E+02 3.700444E+11
             (001,45,12)  3.811053E-03 5.679455E-02 1.065530E-01 5.289417E-01
     7140     9 22:00:00  6.702189E-03 1.972823E+02 1.972890E+02 3.700444E+11
             (001,45,12)  3.811050E-03 5.679454E-02 1.065530E-01 5.289417E-01
     7141     9 22:02:00  6.702206E-03 1.972823E+02 1.972890E+02 3.700444E+11
             (001,45,12)  3.811048E-03 5.679453E-02 1.065530E-01 5.289417E-01
     7142     9 22:04:00  6.702223E-03 1.972823E+02 1.972890E+02 3.700444E+11
             (001,45,12)  3.811046E-03 5.679452E-02 1.065529E-01 5.289417E-01
     7143     9 22:06:00  6.702240E-03 1.972823E+02 1.972890E+02 3.700444E+11
             (001,45,12)  3.811044E-03 5.679451E-02 1.065529E-01 5.289417E-01
     7144     9 22:08:00  6.702257E-03 1.972823E+02 1.972890E+02 3.700444E+11
             (001,45,12)  3.811042E-03 5.679450E-02 1.065529E-01 5.289417E-01
     7145     9 22:10:00  6.702274E-03 1.972823E+02 1.972890E+02 3.700444E+11
             (001,45,12)  3.811040E-03 5.679450E-02 1.065529E-01 5.289417E-01
     7146     9 22:12:00  6.702291E-03 1.972823E+02 1.972890E+02 3.700444E+11
             (001,45,12)  3.811038E-03 5.679449E-02 1.065529E-01 5.289417E-01
     7147     9 22:14:00  6.702308E-03 1.972823E+02 1.972890E+02 3.700444E+11
             (001,45,12)  3.811036E-03 5.679448E-02 1.065529E-01 5.289417E-01
     7148     9 22:16:00  6.702325E-03 1.972823E+02 1.972890E+02 3.700444E+11
             (001,45,12)  3.811034E-03 5.679447E-02 1.065529E-01 5.289417E-01
     7149     9 22:18:00  6.702342E-03 1.972823E+02 1.972890E+02 3.700444E+11
             (001,45,12)  3.811032E-03 5.679446E-02 1.065529E-01 5.289417E-01
     7150     9 22:20:00  6.702359E-03 1.972823E+02 1.972890E+02 3.700444E+11
             (001,45,12)  3.811030E-03 5.679445E-02 1.065529E-01 5.289417E-01
     7151     9 22:22:00  6.702376E-03 1.972823E+02 1.972890E+02 3.700444E+11
             (001,45,12)  3.811028E-03 5.679444E-02 1.065529E-01 5.289417E-01
     7152     9 22:24:00  6.702393E-03 1.972823E+02 1.972890E+02 3.700444E+11
             (001,45,12)  3.811026E-03 5.679443E-02 1.065528E-01 5.289417E-01
     7153     9 22:26:00  6.702410E-03 1.972823E+02 1.972890E+02 3.700444E+11
             (001,45,12)  3.811024E-03 5.679442E-02 1.065528E-01 5.289417E-01
     7154     9 22:28:00  6.702427E-03 1.972823E+02 1.972890E+02 3.700444E+11
             (001,45,12)  3.811022E-03 5.679442E-02 1.065528E-01 5.289417E-01
     7155     9 22:30:00  6.702444E-03 1.972823E+02 1.972890E+02 3.700444E+11
             (001,45,12)  3.811020E-03 5.679441E-02 1.065528E-01 5.289417E-01
     7156     9 22:32:00  6.702461E-03 1.972823E+02 1.972890E+02 3.700444E+11
             (001,45,12)  3.811018E-03 5.679440E-02 1.065528E-01 5.289417E-01
     7157     9 22:34:00  6.702477E-03 1.972823E+02 1.972890E+02 3.700444E+11
             (001,45,12)  3.811016E-03 5.679439E-02 1.065528E-01 5.289417E-01
     7158     9 22:36:00  6.702494E-03 1.972823E+02 1.972890E+02 3.700444E+11
             (001,45,12)  3.811014E-03 5.679438E-02 1.065528E-01 5.289417E-01
     7159     9 22:38:00  6.702511E-03 1.972823E+02 1.972890E+02 3.700444E+11
             (001,45,12)  3.811012E-03 5.679437E-02 1.065528E-01 5.289417E-01
     7160     9 22:40:00  6.702528E-03 1.972823E+02 1.972890E+02 3.700444E+11
             (001,45,12)  3.811010E-03 5.679436E-02 1.065528E-01 5.289417E-01
     7161     9 22:42:00  6.702545E-03 1.972823E+02 1.972890E+02 3.700444E+11
             (001,45,12)  3.811008E-03 5.679435E-02 1.065527E-01 5.289417E-01
     7162     9 22:44:00  6.702561E-03 1.972823E+02 1.972890E+02 3.700444E+11
             (001,45,12)  3.811006E-03 5.679434E-02 1.065527E-01 5.289417E-01
     7163     9 22:46:00  6.702578E-03 1.972823E+02 1.972890E+02 3.700444E+11
             (001,45,12)  3.811004E-03 5.679434E-02 1.065527E-01 5.289417E-01
     7164     9 22:48:00  6.702595E-03 1.972823E+02 1.972890E+02 3.700444E+11
             (001,45,12)  3.811002E-03 5.679433E-02 1.065527E-01 5.289417E-01
     7165     9 22:50:00  6.702611E-03 1.972823E+02 1.972890E+02 3.700444E+11
             (001,45,12)  3.811000E-03 5.679432E-02 1.065527E-01 5.289417E-01
     7166     9 22:52:00  6.702628E-03 1.972823E+02 1.972890E+02 3.700444E+11
             (001,45,12)  3.810998E-03 5.679431E-02 1.065527E-01 5.289417E-01
     7167     9 22:54:00  6.702645E-03 1.972823E+02 1.972890E+02 3.700444E+11
             (001,45,12)  3.810996E-03 5.679430E-02 1.065527E-01 5.289418E-01
     7168     9 22:56:00  6.702661E-03 1.972823E+02 1.972890E+02 3.700444E+11
             (001,45,12)  3.810994E-03 5.679429E-02 1.065527E-01 5.289418E-01
     7169     9 22:58:00  6.702678E-03 1.972823E+02 1.972890E+02 3.700444E+11
             (001,45,12)  3.810992E-03 5.679428E-02 1.065527E-01 5.289418E-01
     7170     9 23:00:00  6.702695E-03 1.972823E+02 1.972890E+02 3.700444E+11
             (001,45,12)  3.810990E-03 5.679428E-02 1.065526E-01 5.289418E-01
     7171     9 23:02:00  6.702711E-03 1.972823E+02 1.972890E+02 3.700444E+11
             (001,45,12)  3.810988E-03 5.679427E-02 1.065526E-01 5.289418E-01
     7172     9 23:04:00  6.702728E-03 1.972823E+02 1.972890E+02 3.700444E+11
             (001,45,12)  3.810986E-03 5.679426E-02 1.065526E-01 5.289418E-01
     7173     9 23:06:00  6.702744E-03 1.972823E+02 1.972890E+02 3.700444E+11
             (001,45,12)  3.810984E-03 5.679425E-02 1.065526E-01 5.289418E-01
     7174     9 23:08:00  6.702761E-03 1.972823E+02 1.972890E+02 3.700444E+11
             (001,45,12)  3.810982E-03 5.679424E-02 1.065526E-01 5.289418E-01
     7175     9 23:10:00  6.702777E-03 1.972823E+02 1.972890E+02 3.700444E+11
             (001,45,12)  3.810980E-03 5.679423E-02 1.065526E-01 5.289418E-01
     7176     9 23:12:00  6.702794E-03 1.972823E+02 1.972890E+02 3.700444E+11
             (001,45,12)  3.810978E-03 5.679423E-02 1.065526E-01 5.289418E-01
     7177     9 23:14:00  6.702810E-03 1.972823E+02 1.972890E+02 3.700444E+11
             (001,45,12)  3.810976E-03 5.679422E-02 1.065526E-01 5.289418E-01
     7178     9 23:16:00  6.702827E-03 1.972823E+02 1.972890E+02 3.700444E+11
             (001,45,12)  3.810974E-03 5.679421E-02 1.065526E-01 5.289418E-01
     7179     9 23:18:00  6.702843E-03 1.972823E+02 1.972890E+02 3.700444E+11
             (001,45,12)  3.810972E-03 5.679420E-02 1.065526E-01 5.289418E-01
     7180     9 23:20:00  6.702860E-03 1.972823E+02 1.972890E+02 3.700444E+11
             (001,45,12)  3.810970E-03 5.679419E-02 1.065525E-01 5.289418E-01
     7181     9 23:22:00  6.702876E-03 1.972823E+02 1.972890E+02 3.700444E+11
             (001,45,12)  3.810968E-03 5.679419E-02 1.065525E-01 5.289418E-01
     7182     9 23:24:00  6.702892E-03 1.972823E+02 1.972890E+02 3.700444E+11
             (001,45,12)  3.810966E-03 5.679418E-02 1.065525E-01 5.289418E-01
     7183     9 23:26:00  6.702909E-03 1.972823E+02 1.972890E+02 3.700444E+11
             (001,45,12)  3.810964E-03 5.679417E-02 1.065525E-01 5.289418E-01
     7184     9 23:28:00  6.702925E-03 1.972823E+02 1.972890E+02 3.700444E+11
             (001,45,12)  3.810962E-03 5.679416E-02 1.065525E-01 5.289418E-01
     7185     9 23:30:00  6.702942E-03 1.972823E+02 1.972890E+02 3.700444E+11
             (001,45,12)  3.810960E-03 5.679415E-02 1.065525E-01 5.289418E-01
     7186     9 23:32:00  6.702958E-03 1.972823E+02 1.972890E+02 3.700444E+11
             (001,45,12)  3.810958E-03 5.679415E-02 1.065525E-01 5.289418E-01
     7187     9 23:34:00  6.702974E-03 1.972823E+02 1.972890E+02 3.700444E+11
             (001,45,12)  3.810956E-03 5.679414E-02 1.065525E-01 5.289418E-01
     7188     9 23:36:00  6.702991E-03 1.972823E+02 1.972890E+02 3.700444E+11
             (001,45,12)  3.810954E-03 5.679413E-02 1.065525E-01 5.289419E-01
     7189     9 23:38:00  6.703007E-03 1.972823E+02 1.972890E+02 3.700444E+11
             (001,45,12)  3.810952E-03 5.679413E-02 1.065525E-01 5.289419E-01
     7190     9 23:40:00  6.703023E-03 1.972823E+02 1.972890E+02 3.700444E+11
             (001,45,12)  3.810950E-03 5.679412E-02 1.065525E-01 5.289419E-01
     7191     9 23:42:00  6.703039E-03 1.972823E+02 1.972890E+02 3.700444E+11
             (001,45,12)  3.810948E-03 5.679411E-02 1.065525E-01 5.289419E-01
     7192     9 23:44:00  6.703056E-03 1.972823E+02 1.972890E+02 3.700444E+11
             (001,45,12)  3.810946E-03 5.679410E-02 1.065524E-01 5.289419E-01
     7193     9 23:46:00  6.703072E-03 1.972823E+02 1.972890E+02 3.700444E+11
             (001,45,12)  3.810944E-03 5.679410E-02 1.065524E-01 5.289419E-01
     7194     9 23:48:00  6.703088E-03 1.972823E+02 1.972890E+02 3.700444E+11
             (001,45,12)  3.810941E-03 5.679409E-02 1.065524E-01 5.289419E-01
     7195     9 23:50:00  6.703105E-03 1.972823E+02 1.972890E+02 3.700444E+11
             (001,45,12)  3.810939E-03 5.679408E-02 1.065524E-01 5.289419E-01
     7196     9 23:52:00  6.703121E-03 1.972823E+02 1.972890E+02 3.700444E+11
             (001,45,12)  3.810937E-03 5.679408E-02 1.065524E-01 5.289419E-01
     7197     9 23:54:00  6.703137E-03 1.972823E+02 1.972890E+02 3.700444E+11
             (001,45,12)  3.810935E-03 5.679407E-02 1.065524E-01 5.289419E-01
     7198     9 23:56:00  6.703153E-03 1.972823E+02 1.972890E+02 3.700444E+11
             (001,45,12)  3.810933E-03 5.679406E-02 1.065524E-01 5.289420E-01
     7199     9 23:58:00  6.703169E-03 1.972823E+02 1.972890E+02 3.700444E+11
             (001,45,12)  3.810931E-03 5.679406E-02 1.065524E-01 5.289420E-01
     7200    10 00:00:00  6.703186E-03 1.972823E+02 1.972890E+02 3.700444E+11
             (001,45,12)  3.810929E-03 5.679405E-02 1.065524E-01 5.289420E-01
      WRT_HIS   - wrote history  fields (Index=1,1) into time record = 0000011
      WRT_AVG   - wrote averaged fields into time record =             0000010
      WRT_DIAGS - wrote diagnostics fields into time record =          0000001
      WRT_RST   - wrote re-start fields (Index=1,1) into time record = 0000002

 Elapsed CPU time (seconds):

 Thread #  0 CPU:    1419.702
 Total:              1419.702

 Nonlinear model elapsed time profile:

  Allocation and array initialization ..............         0.062  ( 0.0044 %)
  Ocean state initialization .......................         0.031  ( 0.0022 %)
  Reading of input data ............................         0.031  ( 0.0022 %)
  Processing of input data .........................         0.543  ( 0.0382 %)
  Processing of output time averaged data ..........       146.844  (10.3433 %)
  Computation of vertical boundary conditions ......         0.640  ( 0.0451 %)
  Computation of global information integrals ......        37.279  ( 2.6258 %)
  Writing of output data ...........................         0.655  ( 0.0461 %)
  Model 2D kernel ..................................       535.230  (37.7002 %)
  2D/3D coupling, vertical metrics .................        27.805  ( 1.9585 %)
  Omega vertical velocity ..........................        20.911  ( 1.4729 %)
  Equation of state for seawater ...................        13.723  ( 0.9666 %)
  3D equations right-side terms ....................        40.661  ( 2.8641 %)
  3D equations predictor step ......................       204.647  (14.4148 %)
  Pressure gradient ................................        34.016  ( 2.3960 %)
  Corrector time-step for 3D momentum ..............       209.296  (14.7422 %)
  Corrector time-step for tracers ..................       111.043  ( 7.8216 %)
                                              Total:      1383.417   97.4442

 All percentages are with respect to total time =         1419.702

 ROMS/TOMS - Output NetCDF summary for Grid 01:
             number of time records written in HISTORY file = 00000011
             number of time records written in RESTART file = 00000002
             number of time records written in AVERAGE file = 00000010

 Analytical header files used:

     ROMS/Functionals/ana_btflux.h
     ROMS/Functionals/ana_grid.h
     ROMS/Functionals/ana_initial.h
     ROMS/Functionals/ana_nudgcoef.h
     ROMS/Functionals/ana_smflux.h
     ROMS/Functionals/ana_stflux.h

 ROMS/TOMS: DONE... Friday - January 20, 2012 -  3:00:12 PM
