--------------------------------------------------------------------------------
 Model Input Parameters:  ROMS/TOMS version 3.7  
                          Thursday - January 31, 2019 -  5:10:31 PM
--------------------------------------------------------------------------------

 Lake Jersey nesting test case, 2 grids: A and B

 Operating system : Linux
 CPU/hardware     : x86_64
 Compiler system  : gfortran
 Compiler command : /bin/gfortran
 Compiler flags   : -frepack-arrays -O3 -ffast-math -

 Git Origin URL: git@github.com:hadfieldnz/roms-trunk-mgh.git
 Git Revision  : master commit 25c99104ec433e7ee92ab833c03c63036acf7697
 Git Status    : The working tree is clean

 Host Name     : niwa-1019320.niwa.local
 Local Root    : /home/hadfield/ROMS/roms-trunk-mgh
 Header Dir    : /home/hadfield/ROMS/roms-test-mgh/lake_jersey/Refined
 Header file   : lake_jersey.h
 Analytical Dir: /home/hadfield/ROMS/roms-test-mgh/lake_jersey/Refined

 Resolution, Grid 01: 100x80x8,  Parallel Threads: 1,  Tiling: 1x1


 Physical Parameters, Grid: 01
 =============================

       1440  ntimes            Number of timesteps for 3-D equations.
    120.000  dt                Timestep size (s) for 3-D equations.
         30  ndtfast           Number of timesteps for 2-D equations between
                                 each 3D timestep.
          1  ERstr             Starting ensemble/perturbation run number.
          1  ERend             Ending ensemble/perturbation run number.
          0  nrrec             Number of restart records to read from disk.
          T  LcycleRST         Switch to recycle time-records in restart file.
         60  nRST              Number of timesteps between the writing of data
                                 into restart fields.
          1  ninfo             Number of timesteps between print of information
                                 to standard output.
          T  ldefout           Switch to create a new output NetCDF file(s).
         15  nHIS              Number of timesteps between the writing fields
                                 into history file.
          0  nQCK              Number of timesteps between the writing fields
                                 into quicksave file.
          1  ntsAVG            Starting timestep for the accumulation of output
                                 time-averaged data.
         15  nAVG              Number of timesteps between the writing of
                                 time-averaged data into averages file.
          F  LuvSponge         Turning OFF sponge on horizontal momentum.
          F  LtracerSponge(01) Turning OFF sponge on tracer 01: temp
          F  LtracerSponge(02) Turning OFF sponge on tracer 02: salt
 5.0000E-06  Akt_bak(01)       Background vertical mixing coefficient (m2/s)
                                 for tracer 01: temp
 5.0000E-06  Akt_bak(02)       Background vertical mixing coefficient (m2/s)
                                 for tracer 02: salt
 5.0000E-05  Akv_bak           Background vertical mixing coefficient (m2/s)
                                 for momentum.
 5.0000E-06  Akk_bak           Background vertical mixing coefficient (m2/s)
                                 for turbulent energy.
 5.0000E-06  Akp_bak           Background vertical mixing coefficient (m2/s)
                                 for turbulent generic statistical field.
      0.000  gls_p             GLS stability exponent.
      1.000  gls_m             GLS turbulent kinetic energy exponent.
      1.000  gls_n             GLS turbulent length scale exponent.
 5.0000E-06  gls_Kmin          GLS minimum value of turbulent kinetic energy.
 5.0000E-06  gls_Pmin          GLS minimum value of dissipation.
 5.5440E-01  gls_cmu0          GLS stability coefficient.
 9.0000E-01  gls_c1            GLS shear production coefficient.
 5.2000E-01  gls_c2            GLS dissipation coefficient.
 2.5000E+00  gls_c3m           GLS stable buoyancy production coefficient.
 1.0000E+00  gls_c3p           GLS unstable buoyancy production coefficient.
 1.9600E+00  gls_sigk          GLS constant Schmidt number for TKE.
 1.9600E+00  gls_sigp          GLS constant Schmidt number for PSI.
   1400.000  charnok_alpha     Charnok factor for Zos calculation.
      0.500  zos_hsig_alpha    Factor for Zos calculation using Hsig(Awave).
      0.250  sz_alpha          Factor for Wave dissipation surface tke flux .
    100.000  crgban_cw         Factor for Craig/Banner surface tke flux.
 3.0000E-04  rdrg              Linear bottom drag coefficient (m/s).
 3.0000E-03  rdrg2             Quadratic bottom drag coefficient.
 1.5000E-02  Zob               Bottom roughness (m).
 2.0000E-02  Zos               Surface roughness (m).
          1  Vtransform        S-coordinate transformation equation.
          1  Vstretching       S-coordinate stretching function.
 1.0000E+00  theta_s           S-coordinate surface control parameter.
 1.0000E+00  theta_b           S-coordinate bottom  control parameter.
     10.000  Tcline            S-coordinate surface/bottom layer width (m) used
                                 in vertical coordinate stretching.
   1025.000  rho0              Mean density (kg/m3) for Boussinesq approximation.
      0.000  dstart            Time-stamp assigned to model initialization (days).
       0.00  time_ref          Reference time for units attribute (yyyymmdd.dd)
 0.0000E+00  Tnudg(01)         Nudging/relaxation time scale (days)
                                 for tracer 01: temp
 0.0000E+00  Tnudg(02)         Nudging/relaxation time scale (days)
                                 for tracer 02: salt
 0.0000E+00  Znudg             Nudging/relaxation time scale (days)
                                 for free-surface.
 0.0000E+00  M2nudg            Nudging/relaxation time scale (days)
                                 for 2D momentum.
 0.0000E+00  M3nudg            Nudging/relaxation time scale (days)
                                 for 3D momentum.
 0.0000E+00  obcfac            Factor between passive and active
                                 open boundary conditions.
          F  VolCons(1)        NLM western  edge boundary volume conservation.
          F  VolCons(2)        NLM southern edge boundary volume conservation.
          F  VolCons(3)        NLM eastern  edge boundary volume conservation.
          F  VolCons(4)        NLM northern edge boundary volume conservation.
     10.000  T0                Background potential temperature (C) constant.
     30.000  S0                Background salinity (PSU) constant.
      1.000  gamma2            Slipperiness variable: free-slip (1.0) or 
                                                      no-slip (-1.0).
          F  LuvSrc            Turning OFF momentum point Sources/Sinks.
          F  LwSrc             Turning OFF volume influx point Sources/Sinks.
          F  LtracerSrc(01)    Turning OFF point Sources/Sinks on tracer 01: temp
          F  LtracerSrc(02)    Turning OFF point Sources/Sinks on tracer 02: salt
          F  LsshCLM           Turning OFF processing of SSH climatology.
          F  Lm2CLM            Turning OFF processing of 2D momentum climatology.
          F  Lm3CLM            Turning OFF processing of 3D momentum climatology.
          F  LtracerCLM(01)    Turning OFF processing of climatology tracer 01: temp
          F  LtracerCLM(02)    Turning OFF processing of climatology tracer 02: salt
          F  LnudgeM2CLM       Turning OFF nudging of 2D momentum climatology.
          F  LnudgeM3CLM       Turning OFF nudging of 3D momentum climatology.
          F  LnudgeTCLM(01)    Turning OFF nudging of climatology tracer 01: temp
          F  LnudgeTCLM(02)    Turning OFF nudging of climatology tracer 02: salt

          T  Hout(idFsur)      Write out free-surface.
          T  Hout(idUbar)      Write out 2D U-momentum component.
          T  Hout(idVbar)      Write out 2D V-momentum component.
          T  Hout(idUvel)      Write out 3D U-momentum component.
          T  Hout(idVvel)      Write out 3D V-momentum component.
          T  Hout(idWvel)      Write out W-momentum component.
          T  Hout(idOvel)      Write out omega vertical velocity.
          T  Hout(idTvar)      Write out tracer 01: temp
          T  Hout(idTvar)      Write out tracer 02: salt

          T  Aout(idFsur)      Write out averaged free-surface.
          T  Aout(idUbar)      Write out averaged 2D U-momentum component.
          T  Aout(idVbar)      Write out averaged 2D V-momentum component.
          T  Aout(idUvel)      Write out averaged 3D U-momentum component.
          T  Aout(idVvel)      Write out averaged 3D V-momentum component.
          T  Aout(idWvel)      Write out averaged W-momentum component.
          T  Aout(idOvel)      Write out averaged omega vertical velocity.
          T  Aout(idTvar)      Write out averaged tracer 01: temp
          T  Aout(idTvar)      Write out averaged tracer 02: salt
          T  Aout(id2dRV)      Write out averaged 2D relative vorticity.
          T  Aout(id2dPV)      Write out averaged 2D potential vorticity.
          T  Aout(id3dRV)      Write out averaged 3D relative vorticity.
          T  Aout(id3dPV)      Write out averaged 3D potential vorticity.

 Output/Input Files:

             Output Restart File:  lake_jersey_rst_a.nc
             Output History File:  lake_jersey_his_a.nc
            Output Averages File:  lake_jersey_avg_a.nc
                 Input Grid File:  ../Data/lake_jersey_grd_a.nc
  Nesting grid connectivity File:  ../Data/lake_jersey_ngc_2g_ab.nc
    Input Nonlinear Initial File:  ../Data/lake_jersey_ini_a.nc

 Resolution, Grid 02: 66x99x8,  Parallel Threads: 1,  Tiling: 1x1


 Physical Parameters, Grid: 02
 =============================

       4320  ntimes            Number of timesteps for 3-D equations.
     40.000  dt                Timestep size (s) for 3-D equations.
         30  ndtfast           Number of timesteps for 2-D equations between
                                 each 3D timestep.
          1  ERstr             Starting ensemble/perturbation run number.
          1  ERend             Ending ensemble/perturbation run number.
          0  nrrec             Number of restart records to read from disk.
          T  LcycleRST         Switch to recycle time-records in restart file.
        120  nRST              Number of timesteps between the writing of data
                                 into restart fields.
          1  ninfo             Number of timesteps between print of information
                                 to standard output.
          T  ldefout           Switch to create a new output NetCDF file(s).
         45  nHIS              Number of timesteps between the writing fields
                                 into history file.
          0  nQCK              Number of timesteps between the writing fields
                                 into quicksave file.
          1  ntsAVG            Starting timestep for the accumulation of output
                                 time-averaged data.
         45  nAVG              Number of timesteps between the writing of
                                 time-averaged data into averages file.
          F  LuvSponge         Turning OFF sponge on horizontal momentum.
          F  LtracerSponge(01) Turning OFF sponge on tracer 01: temp
          F  LtracerSponge(02) Turning OFF sponge on tracer 02: salt
 5.0000E-06  Akt_bak(01)       Background vertical mixing coefficient (m2/s)
                                 for tracer 01: temp
 5.0000E-06  Akt_bak(02)       Background vertical mixing coefficient (m2/s)
                                 for tracer 02: salt
 5.0000E-05  Akv_bak           Background vertical mixing coefficient (m2/s)
                                 for momentum.
 5.0000E-06  Akk_bak           Background vertical mixing coefficient (m2/s)
                                 for turbulent energy.
 5.0000E-06  Akp_bak           Background vertical mixing coefficient (m2/s)
                                 for turbulent generic statistical field.
      0.000  gls_p             GLS stability exponent.
      1.000  gls_m             GLS turbulent kinetic energy exponent.
      1.000  gls_n             GLS turbulent length scale exponent.
 5.0000E-06  gls_Kmin          GLS minimum value of turbulent kinetic energy.
 5.0000E-06  gls_Pmin          GLS minimum value of dissipation.
 5.5440E-01  gls_cmu0          GLS stability coefficient.
 9.0000E-01  gls_c1            GLS shear production coefficient.
 5.2000E-01  gls_c2            GLS dissipation coefficient.
 2.5000E+00  gls_c3m           GLS stable buoyancy production coefficient.
 1.0000E+00  gls_c3p           GLS unstable buoyancy production coefficient.
 1.9600E+00  gls_sigk          GLS constant Schmidt number for TKE.
 1.9600E+00  gls_sigp          GLS constant Schmidt number for PSI.
   1400.000  charnok_alpha     Charnok factor for Zos calculation.
      0.500  zos_hsig_alpha    Factor for Zos calculation using Hsig(Awave).
      0.250  sz_alpha          Factor for Wave dissipation surface tke flux .
    100.000  crgban_cw         Factor for Craig/Banner surface tke flux.
 3.0000E-04  rdrg              Linear bottom drag coefficient (m/s).
 3.0000E-03  rdrg2             Quadratic bottom drag coefficient.
 1.5000E-02  Zob               Bottom roughness (m).
 2.0000E-02  Zos               Surface roughness (m).
          1  Vtransform        S-coordinate transformation equation.
          1  Vstretching       S-coordinate stretching function.
 1.0000E+00  theta_s           S-coordinate surface control parameter.
 1.0000E+00  theta_b           S-coordinate bottom  control parameter.
     10.000  Tcline            S-coordinate surface/bottom layer width (m) used
                                 in vertical coordinate stretching.
   1025.000  rho0              Mean density (kg/m3) for Boussinesq approximation.
      0.000  dstart            Time-stamp assigned to model initialization (days).
       0.00  time_ref          Reference time for units attribute (yyyymmdd.dd)
 0.0000E+00  Tnudg(01)         Nudging/relaxation time scale (days)
                                 for tracer 01: temp
 0.0000E+00  Tnudg(02)         Nudging/relaxation time scale (days)
                                 for tracer 02: salt
 0.0000E+00  Znudg             Nudging/relaxation time scale (days)
                                 for free-surface.
 0.0000E+00  M2nudg            Nudging/relaxation time scale (days)
                                 for 2D momentum.
 0.0000E+00  M3nudg            Nudging/relaxation time scale (days)
                                 for 3D momentum.
 0.0000E+00  obcfac            Factor between passive and active
                                 open boundary conditions.
          F  VolCons(1)        NLM western  edge boundary volume conservation.
          F  VolCons(2)        NLM southern edge boundary volume conservation.
          F  VolCons(3)        NLM eastern  edge boundary volume conservation.
          F  VolCons(4)        NLM northern edge boundary volume conservation.
     10.000  T0                Background potential temperature (C) constant.
     30.000  S0                Background salinity (PSU) constant.
      1.000  gamma2            Slipperiness variable: free-slip (1.0) or 
                                                      no-slip (-1.0).
          F  LuvSrc            Turning OFF momentum point Sources/Sinks.
          F  LwSrc             Turning OFF volume influx point Sources/Sinks.
          F  LtracerSrc(01)    Turning OFF point Sources/Sinks on tracer 01: temp
          F  LtracerSrc(02)    Turning OFF point Sources/Sinks on tracer 02: salt
          F  LsshCLM           Turning OFF processing of SSH climatology.
          F  Lm2CLM            Turning OFF processing of 2D momentum climatology.
          F  Lm3CLM            Turning OFF processing of 3D momentum climatology.
          F  LtracerCLM(01)    Turning OFF processing of climatology tracer 01: temp
          F  LtracerCLM(02)    Turning OFF processing of climatology tracer 02: salt
          F  LnudgeM2CLM       Turning OFF nudging of 2D momentum climatology.
          F  LnudgeM3CLM       Turning OFF nudging of 3D momentum climatology.
          F  LnudgeTCLM(01)    Turning OFF nudging of climatology tracer 01: temp
          F  LnudgeTCLM(02)    Turning OFF nudging of climatology tracer 02: salt

          T  Hout(idFsur)      Write out free-surface.
          T  Hout(idUbar)      Write out 2D U-momentum component.
          T  Hout(idVbar)      Write out 2D V-momentum component.
          T  Hout(idUvel)      Write out 3D U-momentum component.
          T  Hout(idVvel)      Write out 3D V-momentum component.
          T  Hout(idWvel)      Write out W-momentum component.
          T  Hout(idOvel)      Write out omega vertical velocity.
          T  Hout(idTvar)      Write out tracer 01: temp
          T  Hout(idTvar)      Write out tracer 02: salt

          T  Aout(idFsur)      Write out averaged free-surface.
          T  Aout(idUbar)      Write out averaged 2D U-momentum component.
          T  Aout(idVbar)      Write out averaged 2D V-momentum component.
          T  Aout(idUvel)      Write out averaged 3D U-momentum component.
          T  Aout(idVvel)      Write out averaged 3D V-momentum component.
          T  Aout(idWvel)      Write out averaged W-momentum component.
          T  Aout(idOvel)      Write out averaged omega vertical velocity.
          T  Aout(idTvar)      Write out averaged tracer 01: temp
          T  Aout(idTvar)      Write out averaged tracer 02: salt
          T  Aout(id2dRV)      Write out averaged 2D relative vorticity.
          T  Aout(id2dPV)      Write out averaged 2D potential vorticity.
          T  Aout(id3dRV)      Write out averaged 3D relative vorticity.
          T  Aout(id3dPV)      Write out averaged 3D potential vorticity.

 Output/Input Files:

             Output Restart File:  lake_jersey_rst_b.nc
             Output History File:  lake_jersey_his_b.nc
            Output Averages File:  lake_jersey_avg_b.nc
                 Input Grid File:  ../Data/lake_jersey_grd_b.nc
  Nesting grid connectivity File:  ../Data/lake_jersey_ngc_2g_ab.nc
    Input Nonlinear Initial File:  ../Data/lake_jersey_ini_b.nc

 Tile partition information for Grid 01:  100x80x8  tiling: 1x1

     tile     Istr     Iend     Jstr     Jend     Npts

        0        1      100        1       80    64000

 Tile partition information for Grid 02:  66x99x8  tiling: 1x1

     tile     Istr     Iend     Jstr     Jend     Npts

        0        1       66        1       99    52272

 Tile minimum and maximum fractional coordinates for Grid 01:
   (interior points only)

     tile     Xmin     Xmax     Ymin     Ymax     grid

        0     0.50   101.50     0.50    81.50  RHO-points

        0     0.00   101.00     0.50    81.50    U-points

        0     0.50   101.50     0.00    81.00    V-points

 Tile minimum and maximum fractional coordinates for Grid 02:
   (interior points only)

     tile     Xmin     Xmax     Ymin     Ymax     grid

        0    -2.50    68.50    -2.50   101.50  RHO-points

        0    -3.00    68.00    -2.50   101.50    U-points

        0    -2.50    68.50    -3.00   101.00    V-points

 Lateral Boundary Conditions: NLM
 ============================

 Variable               Grid  West Edge    South Edge   East Edge    North Edge
 ---------              ----  ----------   ----------   ----------   ----------

 zeta                     1   Closed       Closed       Closed       Closed
                          2   Nested       Nested       Nested       Nested

 ubar                     1   Closed       Closed       Closed       Closed
                          2   Nested       Nested       Nested       Nested

 vbar                     1   Closed       Closed       Closed       Closed
                          2   Nested       Nested       Nested       Nested

 u                        1   Closed       Closed       Closed       Closed
                          2   Nested       Nested       Nested       Nested

 v                        1   Closed       Closed       Closed       Closed
                          2   Nested       Nested       Nested       Nested

 temp                     1   Closed       Closed       Closed       Closed
                          2   Nested       Nested       Nested       Nested

 salt                     1   Closed       Closed       Closed       Closed
                          2   Nested       Nested       Nested       Nested

 tke                      1   Closed       Closed       Closed       Closed
                          2   Nested       Nested       Nested       Nested

 Activated C-preprocessing Options:

 LAKE_JERSEY         Lake Jersey nesting test case, 2 grids: A and B
 ANA_BSFLUX          Analytical kinematic bottom salinity flux.
 ANA_BTFLUX          Analytical kinematic bottom temperature flux.
 ANA_SMFLUX          Analytical kinematic surface momentum flux.
 ANA_SSFLUX          Analytical kinematic surface salinity flux.
 ANA_STFLUX          Analytical kinematic surface temperature flux.
 ASSUMED_SHAPE       Using assumed-shape arrays.
 AVERAGES            Writing out time-averaged nonlinear model fields.
 DJ_GRADPS           Parabolic Splines density Jacobian (Shchepetkin, 2002).
 DOUBLE_PRECISION    Double precision arithmetic numerical kernel.
 GLS_MIXING          Generic Length-Scale turbulence closure.
 MASKING             Land/Sea masking.
 NESTING             Nesting grids: Composite and Refinement.
 NONLINEAR           Nonlinear Model.
 NONLIN_EOS          Nonlinear Equation of State for seawater.
 N2S2_HORAVG         Horizontal smoothing of buoyancy and shear.
 !ONE_WAY            Two-way nesting in refinement grids.
 POWER_LAW           Power-law shape time-averaging barotropic filter.
 PROFILE             Time profiling activated .
 K_GSCHEME           Third-order upstream advection of TKE fields.
 !RST_SINGLE         Double precision fields in restart NetCDF file.
 SALINITY            Using salinity.
 SOLVE3D             Solving 3D Primitive Equations.
 TS_U3HADVECTION     Third-order upstream horizontal advection of tracers.
 TS_C4VADVECTION     Fourth-order centered vertical advection of tracers.
 UV_ADV              Advection of momentum.
 UV_COR              Coriolis term.
 UV_U3HADVECTION     Third-order upstream horizontal advection of 3D momentum.
 UV_C4VADVECTION     Fourth-order centered vertical advection of momentum.
 UV_LOGDRAG          Logarithmic bottom stress.
 VAR_RHO_2D          Variable density barotropic mode.

 Process Information:

 Thread #    0 (pid=   16046) is active.

 INITIAL: Configuring and initializing forward nonlinear model ...
 *******

    GET_GRID    - Coriolis parameter at RHO-points: f
                   (Grid = 01, File: ../Data/lake_jersey_grd_a.nc)
                   (Min =  1.00000000E-04 Max =  1.00000000E-04)
    GET_GRID    - bathymetry at RHO-points: h
                   (Grid = 01, File: ../Data/lake_jersey_grd_a.nc)
                   (Min =  1.80000000E+01 Max =  1.80000000E+01)
    GET_GRID    - mask on PSI-points: mask_psi
                   (Grid = 01, File: ../Data/lake_jersey_grd_a.nc)
                   (Min =  0.00000000E+00 Max =  1.00000000E+00)
    GET_GRID    - mask on RHO-points: mask_rho
                   (Grid = 01, File: ../Data/lake_jersey_grd_a.nc)
                   (Min =  0.00000000E+00 Max =  1.00000000E+00)
    GET_GRID    - mask on U-points: mask_u
                   (Grid = 01, File: ../Data/lake_jersey_grd_a.nc)
                   (Min =  0.00000000E+00 Max =  1.00000000E+00)
    GET_GRID    - mask on V-points: mask_v
                   (Grid = 01, File: ../Data/lake_jersey_grd_a.nc)
                   (Min =  0.00000000E+00 Max =  1.00000000E+00)
    GET_GRID    - reciprocal XI-grid spacing: pm
                   (Grid = 01, File: ../Data/lake_jersey_grd_a.nc)
                   (Min =  2.00000000E-03 Max =  2.00000000E-03)
    GET_GRID    - reciprocal ETA-grid spacing: pn
                   (Grid = 01, File: ../Data/lake_jersey_grd_a.nc)
                   (Min =  2.00000000E-03 Max =  2.00000000E-03)
    GET_GRID    - x-location of PSI-points: x_psi
                   (Grid = 01, File: ../Data/lake_jersey_grd_a.nc)
                   (Min =  0.00000000E+00 Max =  5.00000000E+04)
    GET_GRID    - x-location of RHO-points: x-rho
                   (Grid = 01, File: ../Data/lake_jersey_grd_a.nc)
                   (Min = -2.50000000E+02 Max =  5.02500000E+04)
    GET_GRID    - x-location of U-points: x_u
                   (Grid = 01, File: ../Data/lake_jersey_grd_a.nc)
                   (Min =  0.00000000E+00 Max =  5.00000000E+04)
    GET_GRID    - x-location of V-points: x_v
                   (Grid = 01, File: ../Data/lake_jersey_grd_a.nc)
                   (Min = -2.50000000E+02 Max =  5.02500000E+04)
    GET_GRID    - y-location of PSI-points: y-psi
                   (Grid = 01, File: ../Data/lake_jersey_grd_a.nc)
                   (Min =  0.00000000E+00 Max =  4.00000000E+04)
    GET_GRID    - y-location of RHO-points: y_rho
                   (Grid = 01, File: ../Data/lake_jersey_grd_a.nc)
                   (Min = -2.50000000E+02 Max =  4.02500000E+04)
    GET_GRID    - y-location of U-points: y_u
                   (Grid = 01, File: ../Data/lake_jersey_grd_a.nc)
                   (Min = -2.50000000E+02 Max =  4.02500000E+04)
    GET_GRID    - y-location of V-points: y_v
                   (Grid = 01, File: ../Data/lake_jersey_grd_a.nc)
                   (Min =  0.00000000E+00 Max =  4.00000000E+04)

    GET_GRID    - Coriolis parameter at RHO-points: f
                   (Grid = 02, File: ../Data/lake_jersey_grd_b.nc)
                   (Min =  1.00000000E-04 Max =  1.00000000E-04)
    GET_GRID    - bathymetry at RHO-points: h
                   (Grid = 02, File: ../Data/lake_jersey_grd_b.nc)
                   (Min =  1.80000000E+01 Max =  1.80000000E+01)
    GET_GRID    - mask on PSI-points: mask_psi
                   (Grid = 02, File: ../Data/lake_jersey_grd_b.nc)
                   (Min =  1.00000000E+00 Max =  1.00000000E+00)
    GET_GRID    - mask on RHO-points: mask_rho
                   (Grid = 02, File: ../Data/lake_jersey_grd_b.nc)
                   (Min =  1.00000000E+00 Max =  1.00000000E+00)
    GET_GRID    - mask on U-points: mask_u
                   (Grid = 02, File: ../Data/lake_jersey_grd_b.nc)
                   (Min =  1.00000000E+00 Max =  1.00000000E+00)
    GET_GRID    - mask on V-points: mask_v
                   (Grid = 02, File: ../Data/lake_jersey_grd_b.nc)
                   (Min =  1.00000000E+00 Max =  1.00000000E+00)
    GET_GRID    - reciprocal XI-grid spacing: pm
                   (Grid = 02, File: ../Data/lake_jersey_grd_b.nc)
                   (Min =  6.00000000E-03 Max =  6.00000000E-03)
    GET_GRID    - reciprocal ETA-grid spacing: pn
                   (Grid = 02, File: ../Data/lake_jersey_grd_b.nc)
                   (Min =  6.00000000E-03 Max =  6.00000000E-03)
    GET_GRID    - x-location of PSI-points: x_psi
                   (Grid = 02, File: ../Data/lake_jersey_grd_b.nc)
                   (Min =  4.00000000E+03 Max =  1.50000000E+04)
    GET_GRID    - x-location of RHO-points: x-rho
                   (Grid = 02, File: ../Data/lake_jersey_grd_b.nc)
                   (Min =  3.91666667E+03 Max =  1.50833333E+04)
    GET_GRID    - x-location of U-points: x_u
                   (Grid = 02, File: ../Data/lake_jersey_grd_b.nc)
                   (Min =  4.00000000E+03 Max =  1.50000000E+04)
    GET_GRID    - x-location of V-points: x_v
                   (Grid = 02, File: ../Data/lake_jersey_grd_b.nc)
                   (Min =  3.91666667E+03 Max =  1.50833333E+04)
    GET_GRID    - y-location of PSI-points: y-psi
                   (Grid = 02, File: ../Data/lake_jersey_grd_b.nc)
                   (Min =  5.50000000E+03 Max =  2.20000000E+04)
    GET_GRID    - y-location of RHO-points: y_rho
                   (Grid = 02, File: ../Data/lake_jersey_grd_b.nc)
                   (Min =  5.41666667E+03 Max =  2.20833333E+04)
    GET_GRID    - y-location of U-points: y_u
                   (Grid = 02, File: ../Data/lake_jersey_grd_b.nc)
                   (Min =  5.41666667E+03 Max =  2.20833333E+04)
    GET_GRID    - y-location of V-points: y_v
                   (Grid = 02, File: ../Data/lake_jersey_grd_b.nc)
                   (Min =  5.50000000E+03 Max =  2.20000000E+04)

 Vertical S-coordinate System, Grid 01:

 level   S-coord     Cs-curve   Z   at hmin       at hc    half way     at hmax

     8   0.0000000   0.0000000        0.000       0.000       0.000       0.000
     7  -0.1250000  -0.1122656       -2.148      -1.250      -2.148      -2.148
     6  -0.2500000  -0.2350037       -4.380      -2.500      -4.380      -4.380
     5  -0.3750000  -0.3654529       -6.674      -3.750      -6.674      -6.674
     4  -0.5000000  -0.5000000       -9.000      -5.000      -9.000      -9.000
     3  -0.6250000  -0.6345471      -11.326      -6.250     -11.326     -11.326
     2  -0.7500000  -0.7649963      -13.620      -7.500     -13.620     -13.620
     1  -0.8750000  -0.8877344      -15.852      -8.750     -15.852     -15.852
     0  -1.0000000  -1.0000000      -18.000     -10.000     -18.000     -18.000

 Vertical S-coordinate System, Grid 02:

 level   S-coord     Cs-curve   Z   at hmin       at hc    half way     at hmax

     8   0.0000000   0.0000000        0.000       0.000       0.000       0.000
     7  -0.1250000  -0.1122656       -2.148      -1.250      -2.148      -2.148
     6  -0.2500000  -0.2350037       -4.380      -2.500      -4.380      -4.380
     5  -0.3750000  -0.3654529       -6.674      -3.750      -6.674      -6.674
     4  -0.5000000  -0.5000000       -9.000      -5.000      -9.000      -9.000
     3  -0.6250000  -0.6345471      -11.326      -6.250     -11.326     -11.326
     2  -0.7500000  -0.7649963      -13.620      -7.500     -13.620     -13.620
     1  -0.8750000  -0.8877344      -15.852      -8.750     -15.852     -15.852
     0  -1.0000000  -1.0000000      -18.000     -10.000     -18.000     -18.000

 Time Splitting Weights for Grid 01:    ndtfast =  30    nfast =  42
 ==================================

    Primary            Secondary            Accumulated to Current Step

  1-0.0008094437383769 0.0333333333333333-0.0008094437383769 0.0333333333333333
  2-0.0014053566728197 0.0333603147912792-0.0022148004111966 0.0666936481246126
  3-0.0017877524645903 0.0334071600137066-0.0040025528757869 0.1001008081383191
  4-0.0019566842408176 0.0334667517625262-0.0059592371166046 0.1335675599008453
  5-0.0019122901320372 0.0335319745705535-0.0078715272486418 0.1670995344713988
  6-0.0016548570247459 0.0335957175749547-0.0095263842733877 0.2006952520463536
  7-0.0011849025289723 0.0336508794757796-0.0107112868023600 0.2343461315221331
  8-0.0005032751608631 0.0336903762267453-0.0112145619632232 0.2680365077488784
  9 0.0003887272597151 0.0337071520654408-0.0108258347035081 0.3017436598143192
 10 0.0014892209965583 0.0336941944901169-0.0093366137069498 0.3354378543044362
 11 0.0027955815694920 0.0336445537902317-0.0065410321374578 0.3690824080946679
 12 0.0043042707117221 0.0335513677379153-0.0022367614257357 0.4026337758325831
 13 0.0060106451121704 0.0334078920475245 0.0037738836864347 0.4360416678801076
 14 0.0079087469427945 0.0332075372104522 0.0116826306292293 0.4692492050905598
 15 0.0099910761708920 0.0329439123123590 0.0216737068001212 0.5021931174029188
 16 0.0122483446563884 0.0326108764399960 0.0339220514565096 0.5348039938429148
 17 0.0146692120341107 0.0322025982847830 0.0485912634906203 0.5670065921276978
 18 0.0172400033810439 0.0317136245503127 0.0658312668716642 0.5987202166780105
 19 0.0199444086685725 0.0311389577709445 0.0857756755402367 0.6298591744489550
 20 0.0227631639997064 0.0304741441486588 0.1085388395399431 0.6603333185976138
 21 0.0256737146312910 0.0297153720153352 0.1342125541712341 0.6900486906129490
 22 0.0286498597812016 0.0288595815276255 0.1628624139524357 0.7189082721405746
 23 0.0316613792205220 0.0279045862015855 0.1945237931729577 0.7468128583421600
 24 0.0346736416507075 0.0268492068942347 0.2291974348236651 0.7736620652363948
 25 0.0376471948657328 0.0256934188392112 0.2668446296893979 0.7993554840756060
 26 0.0405373376992232 0.0244385123436867 0.3073819673886211 0.8237939964192927
 27 0.0432936737565711 0.0230872677537126 0.3506756411451922 0.8468812641730054
 28 0.0458596469320356 0.0216441452951603 0.3965352880772278 0.8685254094681656
 29 0.0481720587108284 0.0201154903974257 0.4447073467880562 0.8886408998655914
 30 0.0501605672561820 0.0185097551070648 0.4948679140442381 0.9071506549726561
 31 0.0517471682814030 0.0168377361985254 0.5466150823256412 0.9239883911711815
 32 0.0528456577069106 0.0151128305891453 0.5994607400325517 0.9391012217603267
 33 0.0533610761022577 0.0133513086655816 0.6528218161348094 0.9524525304259084
 34 0.0531891349131379 0.0115726061288397 0.7060109510479473 0.9640251365547481
 35 0.0522156244733761 0.0097996349650684 0.7582265755213234 0.9738247715198165
 36 0.0503158038019031 0.0080591141492892 0.8085423793232265 0.9818838856691057
 37 0.0473537721847153 0.0063819206892258 0.8558961515079418 0.9882658063583315
 38 0.0431818225418188 0.0048034616164019 0.8990779740497606 0.9930692679747335
 39 0.0376397765791564 0.0033640675316746 0.9367177506289170 0.9964333355064081
 40 0.0305543017255206 0.0021094083123694 0.9672720523544377 0.9985427438187775
 41 0.0217382098544505 0.0010909315881854 0.9890102622088881 0.9996336754069629
 42 0.0109897377911119 0.0003663245930371 1.0000000000000000 1.0000000000000000

 ndtfast, nfast =   30  42   nfast/ndtfast =  1.40000

 Centers of gravity and integrals (values must be 1, 1, approx 1/2, 1, 1):

    1.000000000000 1.047601458608 0.523800729304 1.000000000000 1.000000000000

 Power filter parameters, Fgamma, gamma =  0.28400   0.18933

 Time Splitting Weights for Grid 02:    ndtfast =  30    nfast =  42
 ==================================

    Primary            Secondary            Accumulated to Current Step

  1-0.0008094437383769 0.0333333333333333-0.0008094437383769 0.0333333333333333
  2-0.0014053566728197 0.0333603147912792-0.0022148004111966 0.0666936481246126
  3-0.0017877524645903 0.0334071600137066-0.0040025528757869 0.1001008081383191
  4-0.0019566842408176 0.0334667517625262-0.0059592371166046 0.1335675599008453
  5-0.0019122901320372 0.0335319745705535-0.0078715272486418 0.1670995344713988
  6-0.0016548570247459 0.0335957175749547-0.0095263842733877 0.2006952520463536
  7-0.0011849025289723 0.0336508794757796-0.0107112868023600 0.2343461315221331
  8-0.0005032751608631 0.0336903762267453-0.0112145619632232 0.2680365077488784
  9 0.0003887272597151 0.0337071520654408-0.0108258347035081 0.3017436598143192
 10 0.0014892209965583 0.0336941944901169-0.0093366137069498 0.3354378543044362
 11 0.0027955815694920 0.0336445537902317-0.0065410321374578 0.3690824080946679
 12 0.0043042707117221 0.0335513677379153-0.0022367614257357 0.4026337758325831
 13 0.0060106451121704 0.0334078920475245 0.0037738836864347 0.4360416678801076
 14 0.0079087469427945 0.0332075372104522 0.0116826306292293 0.4692492050905598
 15 0.0099910761708920 0.0329439123123590 0.0216737068001212 0.5021931174029188
 16 0.0122483446563884 0.0326108764399960 0.0339220514565096 0.5348039938429148
 17 0.0146692120341107 0.0322025982847830 0.0485912634906203 0.5670065921276978
 18 0.0172400033810439 0.0317136245503127 0.0658312668716642 0.5987202166780105
 19 0.0199444086685725 0.0311389577709445 0.0857756755402367 0.6298591744489550
 20 0.0227631639997064 0.0304741441486588 0.1085388395399431 0.6603333185976138
 21 0.0256737146312910 0.0297153720153352 0.1342125541712341 0.6900486906129490
 22 0.0286498597812016 0.0288595815276255 0.1628624139524357 0.7189082721405746
 23 0.0316613792205220 0.0279045862015855 0.1945237931729577 0.7468128583421600
 24 0.0346736416507075 0.0268492068942347 0.2291974348236651 0.7736620652363948
 25 0.0376471948657328 0.0256934188392112 0.2668446296893979 0.7993554840756060
 26 0.0405373376992232 0.0244385123436867 0.3073819673886211 0.8237939964192927
 27 0.0432936737565711 0.0230872677537126 0.3506756411451922 0.8468812641730054
 28 0.0458596469320356 0.0216441452951603 0.3965352880772278 0.8685254094681656
 29 0.0481720587108284 0.0201154903974257 0.4447073467880562 0.8886408998655914
 30 0.0501605672561820 0.0185097551070648 0.4948679140442381 0.9071506549726561
 31 0.0517471682814030 0.0168377361985254 0.5466150823256412 0.9239883911711815
 32 0.0528456577069106 0.0151128305891453 0.5994607400325517 0.9391012217603267
 33 0.0533610761022577 0.0133513086655816 0.6528218161348094 0.9524525304259084
 34 0.0531891349131379 0.0115726061288397 0.7060109510479473 0.9640251365547481
 35 0.0522156244733761 0.0097996349650684 0.7582265755213234 0.9738247715198165
 36 0.0503158038019031 0.0080591141492892 0.8085423793232265 0.9818838856691057
 37 0.0473537721847153 0.0063819206892258 0.8558961515079418 0.9882658063583315
 38 0.0431818225418188 0.0048034616164019 0.8990779740497606 0.9930692679747335
 39 0.0376397765791564 0.0033640675316746 0.9367177506289170 0.9964333355064081
 40 0.0305543017255206 0.0021094083123694 0.9672720523544377 0.9985427438187775
 41 0.0217382098544505 0.0010909315881854 0.9890102622088881 0.9996336754069629
 42 0.0109897377911119 0.0003663245930371 1.0000000000000000 1.0000000000000000

 ndtfast, nfast =   30  42   nfast/ndtfast =  1.40000

 Centers of gravity and integrals (values must be 1, 1, approx 1/2, 1, 1):

    1.000000000000 1.047601458608 0.523800729304 1.000000000000 1.000000000000

 Power filter parameters, Fgamma, gamma =  0.28400   0.18933

 Metrics information for Grid 01:
 ===============================

 Minimum X-grid spacing, DXmin =  5.00000000E-01 km
 Maximum X-grid spacing, DXmax =  5.00000000E-01 km
 Minimum Y-grid spacing, DYmin =  5.00000000E-01 km
 Maximum Y-grid spacing, DYmax =  5.00000000E-01 km
 Minimum Z-grid spacing, DZmin =  2.14812514E+00 m
 Maximum Z-grid spacing, DZmax =  2.32637641E+00 m

 Minimum barotropic Courant Number =  1.50340414E-01
 Maximum barotropic Courant Number =  1.50340414E-01
 Maximum Coriolis   Courant Number =  1.20000000E-02


 Metrics information for Grid 02:
 ===============================

 Minimum X-grid spacing, DXmin =  1.66666667E-01 km
 Maximum X-grid spacing, DXmax =  1.66666667E-01 km
 Minimum Y-grid spacing, DYmin =  1.66666667E-01 km
 Maximum Y-grid spacing, DYmax =  1.66666667E-01 km
 Minimum Z-grid spacing, DZmin =  2.14812514E+00 m
 Maximum Z-grid spacing, DZmax =  2.32637641E+00 m

 Minimum barotropic Courant Number =  1.50340414E-01
 Maximum barotropic Courant Number =  1.50340414E-01
 Maximum Coriolis   Courant Number =  4.00000000E-03


 Refined Nested Grid(s) Information: 
 ==================================

 Refined    Donor   Refined   Timestep   Refined
  Grid      Grid    Scale      Ratio   Timesteps

    02        01       03      3.00000      03

 WARNING: Usually the number of Refined Timesteps must be the same
          as the Refined Scale for numerical stability.


 NLM: GET_STATE - Reading state initial conditions,                       0001-01-01 00:00:00.00
                   (Grid 01, t = 0.0000, File: lake_jersey_ini_a.nc, Rec=0001, Index=1)
                - free-surface
                   (Min =  0.00000000E+00 Max =  0.00000000E+00)
                - vertically integrated u-momentum component
                   (Min =  0.00000000E+00 Max =  0.00000000E+00)
                - vertically integrated v-momentum component
                   (Min =  0.00000000E+00 Max =  0.00000000E+00)
                - u-momentum component
                   (Min =  0.00000000E+00 Max =  0.00000000E+00)
                - v-momentum component
                   (Min =  0.00000000E+00 Max =  0.00000000E+00)
                - potential temperature
                   (Min =  1.05902920E+01 Max =  1.94097080E+01)
                - salinity
                   (Min =  3.32000313E+01 Max =  3.67999992E+01)

 NLM: GET_STATE - Reading state initial conditions,                       0001-01-01 00:00:00.00
                   (Grid 02, t = 0.0000, File: lake_jersey_ini_b.nc, Rec=0001, Index=1)
                - free-surface
                   (Min =  0.00000000E+00 Max =  0.00000000E+00)
                - vertically integrated u-momentum component
                   (Min =  0.00000000E+00 Max =  0.00000000E+00)
                - vertically integrated v-momentum component
                   (Min =  0.00000000E+00 Max =  0.00000000E+00)
                - u-momentum component
                   (Min =  0.00000000E+00 Max =  0.00000000E+00)
                - v-momentum component
                   (Min =  0.00000000E+00 Max =  0.00000000E+00)
                - potential temperature
                   (Min =  1.05902920E+01 Max =  1.94097080E+01)
                - salinity
                   (Min =  3.32000310E+01 Max =  3.68000000E+01)

 Basin information for Grid 01:

 Maximum grid stiffness ratios:  rx0 =   0.000000E+00 (Beckmann and Haidvogel)
                                 rx1 =   3.979464E-16 (Haney)

 Initial domain volumes:  TotVolume =  3.2467500000E+10 m3
                         MinCellVol =  5.3703128450E+05 m3
                         MaxCellVol =  5.8159410269E+05 m3
                            Max/Min =  1.0829799296E+00

 Basin information for Grid 02:

 Maximum grid stiffness ratios:  rx0 =   2.960595E-16 (Beckmann and Haidvogel)
                                 rx1 =   4.961602E-15 (Haney)

 Initial domain volumes:  TotVolume =  3.2670000000E+09 m3
                         MinCellVol =  5.9670142722E+04 m3
                         MaxCellVol =  6.4621566966E+04 m3
                            Max/Min =  1.0829799296E+00

 NL ROMS/TOMS: started time-stepping: (Grid: 01 TimeSteps: 000000000001 - 000000001440)
 NL ROMS/TOMS: started time-stepping: (Grid: 02 TimeSteps: 000000000001 - 000000004320)


 TIME-STEP YYYY-MM-DD hh:mm:ss.ss  KINETIC_ENRG   POTEN_ENRG    TOTAL_ENRG    NET_VOLUME  Grid
                     C => (i,j,k)       Cu            Cv            Cw         Max Speed

         0 0001-01-01 00:00:00.00  0.000000E+00  8.810744E+01  8.810744E+01  3.600000E+10  01
                       (000,00,0)  0.000000E+00  0.000000E+00  0.000000E+00  0.000000E+00
      DEF_HIS     - creating  history      file, Grid 01: lake_jersey_his_a.nc
      WRT_HIS     - wrote history     fields (Index=1,1) in record = 0000001               01
      DEF_AVG     - creating  average      file, Grid 01: lake_jersey_avg_a.nc
      DEF_RST   - creating restart file: lake_jersey_rst_a.nc
         0 0001-01-01 00:00:00.00  0.000000E+00  8.832187E+01  8.832187E+01  3.267000E+09  02
                        (00,00,0)  0.000000E+00  0.000000E+00  0.000000E+00  0.000000E+00
      DEF_HIS     - creating  history      file, Grid 02: lake_jersey_his_b.nc
      WRT_HIS     - wrote history     fields (Index=1,1) in record = 0000001               02
      DEF_AVG     - creating  average      file, Grid 02: lake_jersey_avg_b.nc
      DEF_RST   - creating restart file: lake_jersey_rst_b.nc
         1 0001-01-01 00:00:40.00  1.128662E-07  8.832187E+01  8.832187E+01  3.267000E+09  02
                        (65,98,8)  3.664035E-04  3.908498E-07  0.000000E+00  1.526738E-03
         2 0001-01-01 00:01:20.00  4.495786E-07  8.832187E+01  8.832187E+01  3.267000E+09  02
                        (63,03,8)  6.858845E-04  2.290581E-06  1.352034E-04  2.890689E-03
      FINE2COARSE - exchanging data between grids: dg = 02 and rg = 01  at cr = 02
         1 0001-01-01 00:02:00.00  8.855771E-07  8.810744E+01  8.810744E+01  3.600000E+10  01
                       (020,63,8)  9.866981E-04  4.445377E-05  0.000000E+00  4.223505E-03
         3 0001-01-01 00:02:00.00  1.012760E-06  8.832187E+01  8.832187E+01  3.267000E+09  02
                        (07,93,8)  1.017736E-03  5.675159E-06  1.080244E-04  4.269581E-03
         4 0001-01-01 00:02:40.00  1.831355E-06  8.832187E+01  8.832187E+01  3.267000E+09  02
                        (65,02,8)  1.364966E-03  1.533901E-05  9.931313E-05  5.701017E-03
         5 0001-01-01 00:03:20.00  2.890361E-06  8.832187E+01  8.832187E+01  3.267000E+09  02
                        (64,03,8)  1.687534E-03  2.179361E-05  3.427013E-04  7.129726E-03
      FINE2COARSE - exchanging data between grids: dg = 02 and rg = 01  at cr = 02
         2 0001-01-01 00:04:00.00  3.637646E-06  8.810744E+01  8.810744E+01  3.600000E+10  01
                       (008,04,8)  1.953572E-03  1.432740E-04  1.648864E-04  8.533803E-03
         6 0001-01-01 00:04:00.00  4.189219E-06  8.832187E+01  8.832187E+01  3.267000E+09  02
                        (61,01,8)  2.043255E-03  2.680696E-05  2.248892E-04  8.574842E-03
         7 0001-01-01 00:04:40.00  5.776212E-06  8.832184E+01  8.832185E+01  3.266999E+09  02
                        (57,98,8)  2.398308E-03  4.187424E-05  1.677999E-04  1.000952E-02
         8 0001-01-01 00:05:20.00  7.616219E-06  8.832181E+01  8.832182E+01  3.266998E+09  02
                        (64,03,8)  2.730678E-03  5.131707E-05  3.408733E-04  1.149279E-02
      FINE2COARSE - exchanging data between grids: dg = 02 and rg = 01  at cr = 02
         3 0001-01-01 00:06:00.00  8.396478E-06  8.810744E+01  8.810745E+01  3.600000E+10  01
                       (020,63,8)  3.096771E-03  1.738872E-04  1.002596E-04  1.300297E-02
         9 0001-01-01 00:06:00.00  9.707584E-06  8.832178E+01  8.832179E+01  3.266997E+09  02
                        (61,01,8)  3.101609E-03  6.368706E-05  2.260631E-04  1.299285E-02
        10 0001-01-01 00:06:40.00  1.209963E-05  8.832162E+01  8.832163E+01  3.266990E+09  02
                        (57,98,8)  3.466412E-03  8.009835E-05  1.599159E-04  1.446878E-02
        11 0001-01-01 00:07:20.00  1.475326E-05  8.832145E+01  8.832147E+01  3.266984E+09  02
                        (64,03,8)  3.803589E-03  9.430758E-05  3.569105E-04  1.598777E-02
      FINE2COARSE - exchanging data between grids: dg = 02 and rg = 01  at cr = 02
         4 0001-01-01 00:08:00.00  1.530328E-05  8.810745E+01  8.810746E+01  3.600000E+10  01
                       (029,67,8)  4.159782E-03  2.197869E-04  1.487978E-04  1.763598E-02
        12 0001-01-01 00:08:00.00  1.766580E-05  8.832129E+01  8.832130E+01  3.266978E+09  02
                        (61,01,8)  4.194851E-03  1.128450E-04  2.337895E-04  1.755573E-02
        13 0001-01-01 00:08:40.00  2.089659E-05  8.832094E+01  8.832096E+01  3.266965E+09  02
                        (57,98,8)  4.564058E-03  1.303976E-04  1.699491E-04  1.905205E-02
        14 0001-01-01 00:09:20.00  2.439508E-05  8.832060E+01  8.832062E+01  3.266953E+09  02
                        (64,03,8)  4.906228E-03  1.492111E-04  3.702012E-04  2.061255E-02
      FINE2COARSE - exchanging data between grids: dg = 02 and rg = 01  at cr = 02
         5 0001-01-01 00:10:00.00  2.449716E-05  8.810745E+01  8.810747E+01  3.600000E+10  01
                       (020,63,8)  5.344352E-03  2.908577E-04  9.158693E-05  2.243478E-02
        15 0001-01-01 00:10:00.00  2.815751E-05  8.832026E+01  8.832029E+01  3.266940E+09  02
                        (61,01,8)  5.315691E-03  1.741812E-04  2.425986E-04  2.223668E-02
        16 0001-01-01 00:10:40.00  3.226166E-05  8.831974E+01  8.831977E+01  3.266921E+09  02
                        (57,98,8)  5.692379E-03  1.932338E-04  1.725147E-04  2.376404E-02
        17 0001-01-01 00:11:20.00  3.663852E-05  8.831922E+01  8.831925E+01  3.266901E+09  02
                        (64,03,8)  6.036887E-03  2.164952E-04  3.808446E-04  2.537693E-02
      FINE2COARSE - exchanging data between grids: dg = 02 and rg = 01  at cr = 02
         6 0001-01-01 00:12:00.00  3.611415E-05  8.810745E+01  8.810749E+01  3.600000E+10  01
                       (020,63,8)  6.501659E-03  3.398062E-04  9.557623E-05  2.726033E-02
        18 0001-01-01 00:12:00.00  4.128568E-05  8.831869E+01  8.831874E+01  3.266882E+09  02
                        (61,01,8)  6.469931E-03  2.473220E-04  2.468518E-04  2.706346E-02
        19 0001-01-01 00:12:40.00  4.629938E-05  8.831798E+01  8.831803E+01  3.266856E+09  02
                        (57,98,8)  6.857602E-03  2.638915E-04  1.634282E-04  2.863338E-02
        20 0001-01-01 00:13:20.00  5.158479E-05  8.831727E+01  8.831732E+01  3.266829E+09  02
                        (64,03,8)  7.205524E-03  2.977325E-04  3.960216E-04  3.030594E-02
      FINE2COARSE - exchanging data between grids: dg = 02 and rg = 01  at cr = 02
         7 0001-01-01 00:14:00.00  5.028736E-05  8.810746E+01  8.810751E+01  3.600000E+10  01
                       (020,63,8)  7.655022E-03  3.697987E-04  1.205531E-04  3.203848E-02
        21 0001-01-01 00:14:00.00  5.712928E-05  8.831656E+01  8.831662E+01  3.266803E+09  02
                        (61,01,8)  7.643539E-03  3.352030E-04  2.787264E-04  3.195060E-02
        22 0001-01-01 00:14:40.00  6.305425E-05  8.831565E+01  8.831571E+01  3.266769E+09  02
                        (58,01,8)  8.038943E-03  3.143548E-04  1.903007E-04  3.357295E-02
        23 0001-01-01 00:15:20.00  6.927988E-05  8.831474E+01  8.831481E+01  3.266736E+09  02
                        (64,03,8)  8.365170E-03  3.948600E-04  4.407882E-04  3.520361E-02
      FINE2COARSE - exchanging data between grids: dg = 02 and rg = 01  at cr = 02
         8 0001-01-01 00:16:00.00  6.714483E-05  8.810746E+01  8.810753E+01  3.600000E+10  01
                       (022,17,8)  8.610482E-03  4.296039E-04  3.724900E-04  3.715289E-02
        24 0001-01-01 00:16:00.00  7.579971E-05  8.831383E+01  8.831391E+01  3.266702E+09  02
                        (61,01,8)  8.832159E-03  4.378477E-04  2.449167E-04  3.693427E-02
        25 0001-01-01 00:16:40.00  8.270226E-05  8.831273E+01  8.831282E+01  3.266661E+09  02
                        (58,09,8)  9.169371E-03  4.517850E-04  2.460009E-04  3.848437E-02
        26 0001-01-01 00:17:20.00  8.989276E-05  8.831163E+01  8.831172E+01  3.266620E+09  02
                        (64,03,8)  9.542280E-03  5.088880E-04  4.096131E-04  4.020593E-02
      FINE2COARSE - exchanging data between grids: dg = 02 and rg = 01  at cr = 02
         9 0001-01-01 00:18:00.00  8.680985E-05  8.810746E+01  8.810755E+01  3.600000E+10  01
                       (028,14,8)  9.935390E-03  5.327284E-04  3.158898E-04  4.233445E-02
        27 0001-01-01 00:18:00.00  9.739144E-05  8.831053E+01  8.831063E+01  3.266580E+09  02
                        (61,01,8)  1.000523E-02  5.553005E-04  2.231630E-04  4.185974E-02
        28 0001-01-01 00:18:40.00  1.052901E-04  8.830928E+01  8.830939E+01  3.266533E+09  02
                        (58,29,8)  1.031501E-02  5.691437E-04  2.722111E-04  4.329631E-02
        29 0001-01-01 00:19:20.00  1.135122E-04  8.830803E+01  8.830814E+01  3.266487E+09  02
                        (64,64,8)  1.073740E-02  5.952443E-04  3.756581E-04  4.499720E-02
      FINE2COARSE - exchanging data between grids: dg = 02 and rg = 01  at cr = 02
        10 0001-01-01 00:20:00.00  1.093989E-04  8.810747E+01  8.810758E+01  3.600000E+10  01
                       (028,20,8)  1.106880E-02  6.593726E-04  4.053284E-04  4.748468E-02
        30 0001-01-01 00:20:00.00  1.220968E-04  8.830678E+01  8.830690E+01  3.266441E+09  02
                        (61,01,8)  1.115944E-02  6.795190E-04  2.324407E-04  4.661223E-02
        31 0001-01-01 00:20:40.00  1.310947E-04  8.830546E+01  8.830559E+01  3.266392E+09  02
                        (58,38,8)  1.144673E-02  7.022151E-04  2.660504E-04  4.811947E-02
        32 0001-01-01 00:21:20.00  1.404705E-04  8.830414E+01  8.830428E+01  3.266343E+09  02
                        (64,57,8)  1.188085E-02  7.297660E-04  2.643116E-04  4.983194E-02
      FINE2COARSE - exchanging data between grids: dg = 02 and rg = 01  at cr = 02
        11 0001-01-01 00:22:00.00  1.350263E-04  8.810747E+01  8.810761E+01  3.600000E+10  01
                       (028,24,8)  1.222198E-02  7.992288E-04  4.830914E-04  5.258006E-02
        33 0001-01-01 00:22:00.00  1.502417E-04  8.830282E+01  8.830297E+01  3.266294E+09  02
                        (61,01,8)  1.232175E-02  8.050587E-04  2.014045E-04  5.145015E-02
        34 0001-01-01 00:22:40.00  1.604395E-04  8.830146E+01  8.830162E+01  3.266244E+09  02
                        (58,48,8)  1.260652E-02  8.453071E-04  1.927241E-04  5.303342E-02
        35 0001-01-01 00:23:20.00  1.710442E-04  8.830009E+01  8.830026E+01  3.266193E+09  02
                        (63,01,8)  1.305593E-02  9.100786E-04  1.891050E-04  5.475184E-02
      FINE2COARSE - exchanging data between grids: dg = 02 and rg = 01  at cr = 02
        12 0001-01-01 00:24:00.00  1.638006E-04  8.810748E+01  8.810764E+01  3.600000E+10  01
                       (028,28,8)  1.340135E-02  9.408668E-04  4.412604E-04  5.766784E-02
        36 0001-01-01 00:24:00.00  1.820614E-04  8.829872E+01  8.829890E+01  3.266142E+09  02
                        (61,01,8)  1.350415E-02  9.405716E-04  1.818942E-04  5.640362E-02
        37 0001-01-01 00:24:40.00  1.935221E-04  8.829731E+01  8.829750E+01  3.266090E+09  02
                        (61,01,8)  1.388882E-02  9.905318E-04  7.544008E-05  5.801710E-02
        38 0001-01-01 00:25:20.00  2.054046E-04  8.829590E+01  8.829610E+01  3.266038E+09  02
                        (63,01,8)  1.424223E-02  1.058866E-03  1.877011E-04  5.973921E-02
      FINE2COARSE - exchanging data between grids: dg = 02 and rg = 01  at cr = 02
        13 0001-01-01 00:26:00.00  1.958248E-04  8.810748E+01  8.810768E+01  3.600000E+10  01
                       (037,24,8)  1.483096E-02  1.093467E-03  2.667775E-04  6.285183E-02
        39 0001-01-01 00:26:00.00  2.177152E-04  8.829449E+01  8.829470E+01  3.265985E+09  02
                        (61,01,8)  1.469768E-02  1.091384E-03  1.752354E-04  6.142550E-02
        40 0001-01-01 00:26:40.00  2.304885E-04  8.829304E+01  8.829327E+01  3.265932E+09  02
                        (61,01,8)  1.508828E-02  1.145681E-03  9.277619E-05  6.306360E-02
        41 0001-01-01 00:27:20.00  2.437089E-04  8.829159E+01  8.829184E+01  3.265878E+09  02
                        (63,01,8)  1.544048E-02  1.221648E-03  1.890641E-04  6.483805E-02
      FINE2COARSE - exchanging data between grids: dg = 02 and rg = 01  at cr = 02
        14 0001-01-01 00:28:00.00  2.311969E-04  8.810749E+01  8.810772E+01  3.600000E+10  01
                       (039,28,8)  1.612038E-02  1.242652E-03  3.334488E-04  6.840247E-02
        42 0001-01-01 00:28:00.00  2.573852E-04  8.829015E+01  8.829040E+01  3.265825E+09  02
                        (61,01,8)  1.591459E-02  1.255958E-03  1.531882E-04  6.658632E-02
        43 0001-01-01 00:28:40.00  2.715424E-04  8.828866E+01  8.828893E+01  3.265770E+09  02
                        (61,01,8)  1.631859E-02  1.316418E-03  8.438359E-05  6.826355E-02
        44 0001-01-01 00:29:20.00  2.861427E-04  8.828718E+01  8.828746E+01  3.265715E+09  02
                        (63,01,8)  1.667214E-02  1.399645E-03  1.874692E-04  7.005420E-02
      FINE2COARSE - exchanging data between grids: dg = 02 and rg = 01  at cr = 02
        15 0001-01-01 00:30:00.00  2.700116E-04  8.810750E+01  8.810777E+01  3.600000E+10  01
                       (042,29,8)  1.745913E-02  1.395904E-03  3.752029E-04  7.389599E-02
      WRT_HIS     - wrote history     fields (Index=1,2) in record = 0000002               01
      WRT_AVG     - wrote averaged    fields             in record = 0000001               01
        45 0001-01-01 00:30:00.00  3.011999E-04  8.828569E+01  8.828599E+01  3.265660E+09  02
                        (61,01,8)  1.714589E-02  1.435895E-03  1.726724E-04  7.178501E-02
      WRT_HIS     - wrote history     fields (Index=1,2) in record = 0000002               02
      WRT_AVG     - wrote averaged    fields             in record = 0000001               02
        46 0001-01-01 00:30:40.00  3.167628E-04  8.828417E+01  8.828449E+01  3.265603E+09  02
                        (62,01,8)  1.752605E-02  1.509771E-03  9.978400E-05  7.347315E-02
        47 0001-01-01 00:31:20.00  3.328050E-04  8.828265E+01  8.828298E+01  3.265547E+09  02
                        (63,01,8)  1.790773E-02  1.591403E-03  1.912243E-04  7.528402E-02
      FINE2COARSE - exchanging data between grids: dg = 02 and rg = 01  at cr = 02
        16 0001-01-01 00:32:00.00  3.123627E-04  8.810751E+01  8.810782E+01  3.600000E+10  01
                       (045,29,8)  1.880123E-02  1.562341E-03  3.685872E-04  7.915243E-02
        48 0001-01-01 00:32:00.00  3.493265E-04  8.828113E+01  8.828148E+01  3.265491E+09  02
                        (61,01,8)  1.839871E-02  1.629251E-03  1.743528E-04  7.706776E-02
        49 0001-01-01 00:32:40.00  3.663598E-04  8.827958E+01  8.827994E+01  3.265433E+09  02
                        (61,01,8)  1.881106E-02  1.691587E-03  1.079481E-04  7.880266E-02
        50 0001-01-01 00:33:20.00  3.838793E-04  8.827803E+01  8.827841E+01  3.265376E+09  02
                        (63,01,8)  1.916035E-02  1.790166E-03  1.930067E-04  8.062667E-02
      FINE2COARSE - exchanging data between grids: dg = 02 and rg = 01  at cr = 02
        17 0001-01-01 00:34:00.00  3.583539E-04  8.810752E+01  8.810787E+01  3.600000E+10  01
                       (055,21,8)  2.007945E-02  1.789546E-03  2.515998E-04  8.448232E-02
        51 0001-01-01 00:34:00.00  4.018905E-04  8.827647E+01  8.827688E+01  3.265318E+09  02
                        (61,01,8)  1.965632E-02  1.829608E-03  1.772727E-04  8.242136E-02
        52 0001-01-01 00:34:40.00  4.204305E-04  8.827490E+01  8.827532E+01  3.265260E+09  02
                        (62,01,8)  2.004463E-02  1.893900E-03  1.515673E-04  8.417165E-02
        53 0001-01-01 00:35:20.00  4.394733E-04  8.827332E+01  8.827376E+01  3.265201E+09  02
                        (62,01,8)  2.047246E-02  1.968260E-03  1.862058E-04  8.602552E-02
      FINE2COARSE - exchanging data between grids: dg = 02 and rg = 01  at cr = 02
        18 0001-01-01 00:36:00.00  4.081025E-04  8.810752E+01  8.810793E+01  3.600000E+10  01
                       (058,16,8)  2.125805E-02  2.002533E-03  2.710787E-04  8.964274E-02
        54 0001-01-01 00:36:00.00  4.590211E-04  8.827175E+01  8.827221E+01  3.265143E+09  02
                        (61,01,8)  2.092438E-02  2.031387E-03  1.885951E-04  8.785450E-02
        55 0001-01-01 00:36:40.00  4.791078E-04  8.827016E+01  8.827064E+01  3.265084E+09  02
                        (62,01,8)  2.131702E-02  2.090614E-03  1.802443E-04  8.962758E-02
        56 0001-01-01 00:37:20.00  4.997112E-04  8.826857E+01  8.826907E+01  3.265025E+09  02
                        (62,01,8)  2.174339E-02  2.170554E-03  2.008706E-04  9.149256E-02
      FINE2COARSE - exchanging data between grids: dg = 02 and rg = 01  at cr = 02
        19 0001-01-01 00:38:00.00  4.617288E-04  8.810753E+01  8.810800E+01  3.600000E+10  01
                       (060,14,8)  2.245733E-02  2.224336E-03  2.799718E-04  9.516645E-02
        57 0001-01-01 00:38:00.00  5.208301E-04  8.826698E+01  8.826750E+01  3.264966E+09  02
                        (61,01,8)  2.220222E-02  2.238273E-03  1.772417E-04  9.334589E-02
        58 0001-01-01 00:38:40.00  5.424954E-04  8.826537E+01  8.826592E+01  3.264907E+09  02
                        (62,01,8)  2.259834E-02  2.303850E-03  1.826389E-04  9.514493E-02
        59 0001-01-01 00:39:20.00  5.646892E-04  8.826377E+01  8.826433E+01  3.264847E+09  02
                        (62,01,8)  2.302892E-02  2.388583E-03  1.936321E-04  9.702726E-02
      FINE2COARSE - exchanging data between grids: dg = 02 and rg = 01  at cr = 02
        20 0001-01-01 00:40:00.00  5.193501E-04  8.810755E+01  8.810806E+01  3.600000E+10  01
                       (063,11,8)  2.364254E-02  2.450673E-03  2.994531E-04  1.007228E-01
        60 0001-01-01 00:40:00.00  5.874089E-04  8.826217E+01  8.826275E+01  3.264788E+09  02
                        (61,01,8)  2.349597E-02  2.460251E-03  1.678772E-04  9.891836E-02
        61 0001-01-01 00:40:40.00  6.106746E-04  8.826056E+01  8.826117E+01  3.264728E+09  02
                        (61,01,8)  2.392874E-02  2.518303E-03  1.630653E-04  1.007361E-01
        62 0001-01-01 00:41:20.00  6.344731E-04  8.825896E+01  8.825959E+01  3.264669E+09  02
                        (61,01,8)  2.435838E-02  2.607567E-03  1.773454E-04  1.026025E-01
      FINE2COARSE - exchanging data between grids: dg = 02 and rg = 01  at cr = 02
        21 0001-01-01 00:42:00.00  5.810767E-04  8.810756E+01  8.810814E+01  3.600000E+10  01
                       (065,05,8)  2.485918E-02  2.688511E-03  2.952767E-04  1.062631E-01
        63 0001-01-01 00:42:00.00  6.588052E-04  8.825735E+01  8.825801E+01  3.264609E+09  02
                        (62,01,8)  2.475565E-02  2.711805E-03  1.941128E-04  1.044906E-01
        64 0001-01-01 00:42:40.00  6.836702E-04  8.825578E+01  8.825647E+01  3.264551E+09  02
                        (61,01,8)  2.522292E-02  2.756402E-03  1.783902E-04  1.063126E-01
        65 0001-01-01 00:43:20.00  7.090949E-04  8.825421E+01  8.825492E+01  3.264493E+09  02
                        (61,01,8)  2.564759E-02  2.851060E-03  1.845312E-04  1.081638E-01
      FINE2COARSE - exchanging data between grids: dg = 02 and rg = 01  at cr = 02
        22 0001-01-01 00:44:00.00  6.470104E-04  8.810757E+01  8.810821E+01  3.600000E+10  01
                       (029,12,8)  2.602227E-02  2.989577E-03  3.836816E-04  1.117189E-01
        66 0001-01-01 00:44:00.00  7.350713E-04  8.825264E+01  8.825338E+01  3.264435E+09  02
                        (63,01,8)  2.601940E-02  2.987388E-03  1.926912E-04  1.100280E-01
        67 0001-01-01 00:44:40.00  7.615405E-04  8.825114E+01  8.825190E+01  3.264379E+09  02
                        (61,01,8)  2.652256E-02  3.010806E-03  1.915284E-04  1.118783E-01
        68 0001-01-01 00:45:20.00  7.885682E-04  8.824964E+01  8.825043E+01  3.264323E+09  02
                        (61,01,8)  2.693256E-02  3.110697E-03  1.921894E-04  1.136673E-01
      FINE2COARSE - exchanging data between grids: dg = 02 and rg = 01  at cr = 02
        23 0001-01-01 00:46:00.00  7.172448E-04  8.810758E+01  8.810830E+01  3.600000E+10  01
                       (029,12,8)  2.730324E-02  3.260143E-03  3.342281E-04  1.170125E-01
        69 0001-01-01 00:46:00.00  8.161509E-04  8.824814E+01  8.824895E+01  3.264268E+09  02
                        (63,01,8)  2.730832E-02  3.253567E-03  1.876864E-04  1.154073E-01
        70 0001-01-01 00:46:40.00  8.441998E-04  8.824675E+01  8.824759E+01  3.264216E+09  02
                        (61,01,8)  2.779612E-02  3.287444E-03  1.989870E-04  1.172577E-01
        71 0001-01-01 00:47:20.00  8.728292E-04  8.824536E+01  8.824623E+01  3.264165E+09  02
                        (61,01,8)  2.819149E-02  3.392501E-03  1.877911E-04  1.190413E-01
      FINE2COARSE - exchanging data between grids: dg = 02 and rg = 01  at cr = 02
        24 0001-01-01 00:48:00.00  7.918641E-04  8.810759E+01  8.810838E+01  3.600000E+10  01
                       (092,78,8)  2.708571E-02  5.136616E-03  2.982675E-04  1.220869E-01
        72 0001-01-01 00:48:00.00  9.020241E-04  8.824397E+01  8.824487E+01  3.264113E+09  02
                        (65,01,8)  2.851630E-02  3.559712E-03  2.544906E-04  1.206620E-01
        73 0001-01-01 00:48:40.00  9.316780E-04  8.824270E+01  8.824363E+01  3.264066E+09  02
                        (61,01,8)  2.905547E-02  3.588139E-03  2.144785E-04  1.224737E-01
        74 0001-01-01 00:49:20.00  9.619202E-04  8.824144E+01  8.824240E+01  3.264019E+09  02
                        (60,01,8)  2.946831E-02  3.652872E-03  2.141755E-04  1.242687E-01
      FINE2COARSE - exchanging data between grids: dg = 02 and rg = 01  at cr = 02
        25 0001-01-01 00:50:00.00  8.709403E-04  8.810760E+01  8.810847E+01  3.600000E+10  01
                       (092,78,8)  2.837466E-02  5.624312E-03  3.467136E-04  1.272502E-01
        75 0001-01-01 00:50:00.00  9.927362E-04  8.824017E+01  8.824116E+01  3.263972E+09  02
                        (65,01,8)  2.976788E-02  3.877727E-03  2.645272E-04  1.259001E-01
        76 0001-01-01 00:50:40.00  1.024028E-03  8.823903E+01  8.824005E+01  3.263930E+09  02
                        (61,01,8)  3.029441E-02  3.909045E-03  2.158102E-04  1.276455E-01
        77 0001-01-01 00:51:20.00  1.055914E-03  8.823788E+01  8.823894E+01  3.263887E+09  02
                        (64,03,8)  3.059512E-02  4.088210E-03  2.533919E-04  1.294677E-01
      FINE2COARSE - exchanging data between grids: dg = 02 and rg = 01  at cr = 02
        26 0001-01-01 00:52:00.00  9.545306E-04  8.810761E+01  8.810857E+01  3.600000E+10  01
                       (092,78,8)  2.967216E-02  6.140114E-03  3.912133E-04  1.326585E-01
        78 0001-01-01 00:52:00.00  1.088382E-03  8.823673E+01  8.823782E+01  3.263845E+09  02
                        (64,01,8)  3.109553E-02  4.196484E-03  2.093800E-04  1.311323E-01
        79 0001-01-01 00:52:40.00  1.121337E-03  8.823570E+01  8.823682E+01  3.263806E+09  02
                        (61,01,8)  3.152792E-02  4.244469E-03  2.232655E-04  1.328866E-01
        80 0001-01-01 00:53:20.00  1.154893E-03  8.823467E+01  8.823583E+01  3.263768E+09  02
                        (64,03,8)  3.183803E-02  4.436848E-03  2.663872E-04  1.347382E-01
      FINE2COARSE - exchanging data between grids: dg = 02 and rg = 01  at cr = 02
        27 0001-01-01 00:54:00.00  1.042673E-03  8.810762E+01  8.810867E+01  3.600000E+10  01
                       (092,78,8)  3.097487E-02  6.683083E-03  4.439534E-04  1.379952E-01
        81 0001-01-01 00:54:00.00  1.189035E-03  8.823364E+01  8.823483E+01  3.263730E+09  02
                        (64,01,8)  3.234595E-02  4.548834E-03  2.203308E-04  1.364363E-01
        82 0001-01-01 00:54:40.00  1.223671E-03  8.823273E+01  8.823395E+01  3.263696E+09  02
                        (63,01,8)  3.276397E-02  4.638989E-03  2.004883E-04  1.382033E-01
        83 0001-01-01 00:55:20.00  1.258918E-03  8.823181E+01  8.823307E+01  3.263662E+09  02
                        (64,03,8)  3.307673E-02  4.801229E-03  2.752369E-04  1.400686E-01
      FINE2COARSE - exchanging data between grids: dg = 02 and rg = 01  at cr = 02
        28 0001-01-01 00:56:00.00  1.135386E-03  8.810763E+01  8.810877E+01  3.600000E+10  01
                       (092,78,8)  3.227784E-02  7.249514E-03  5.119366E-04  1.436704E-01
        84 0001-01-01 00:56:00.00  1.294755E-03  8.823090E+01  8.823219E+01  3.263628E+09  02
                        (64,01,8)  3.359455E-02  4.916559E-03  2.309410E-04  1.417913E-01
        85 0001-01-01 00:56:40.00  1.331092E-03  8.823008E+01  8.823141E+01  3.263598E+09  02
                        (63,01,8)  3.401437E-02  5.008396E-03  2.021230E-04  1.435590E-01
        86 0001-01-01 00:57:20.00  1.368040E-03  8.822926E+01  8.823063E+01  3.263567E+09  02
                        (64,02,8)  3.432719E-02  5.194824E-03  2.670869E-04  1.454002E-01
      FINE2COARSE - exchanging data between grids: dg = 02 and rg = 01  at cr = 02
        29 0001-01-01 00:58:00.00  1.232665E-03  8.810764E+01  8.810888E+01  3.600000E+10  01
                       (092,78,8)  3.357213E-02  7.835632E-03  5.863458E-04  1.494531E-01
        87 0001-01-01 00:58:00.00  1.405582E-03  8.822845E+01  8.822985E+01  3.263537E+09  02
                        (64,01,8)  3.483646E-02  5.302652E-03  2.267319E-04  1.471564E-01
        88 0001-01-01 00:58:40.00  1.443634E-03  8.822770E+01  8.822915E+01  3.263509E+09  02
                        (63,01,8)  3.525125E-02  5.395407E-03  2.061406E-04  1.489375E-01
        89 0001-01-01 00:59:20.00  1.482305E-03  8.822696E+01  8.822844E+01  3.263482E+09  02
                        (64,01,8)  3.562340E-02  5.570705E-03  2.467173E-04  1.507273E-01
      FINE2COARSE - exchanging data between grids: dg = 02 and rg = 01  at cr = 02
        30 0001-01-01 01:00:00.00  1.334494E-03  8.810765E+01  8.810899E+01  3.600000E+10  01
                       (092,78,8)  3.484377E-02  8.435245E-03  6.795426E-04  1.553249E-01
      WRT_HIS     - wrote history     fields (Index=1,1) in record = 0000003               01
      WRT_AVG     - wrote averaged    fields             in record = 0000002               01
        90 0001-01-01 01:00:00.00  1.521573E-03  8.822622E+01  8.822774E+01  3.263454E+09  02
                        (64,01,8)  3.607473E-02  5.705909E-03  2.314103E-04  1.525102E-01
      WRT_HIS     - wrote history     fields (Index=1,1) in record = 0000003               02
      WRT_AVG     - wrote averaged    fields             in record = 0000002               02
        91 0001-01-01 01:00:40.00  1.561358E-03  8.822552E+01  8.822708E+01  3.263428E+09  02
                        (63,01,8)  3.648880E-02  5.795763E-03  2.098328E-04  1.542897E-01
        92 0001-01-01 01:01:20.00  1.601755E-03  8.822483E+01  8.822643E+01  3.263402E+09  02
                        (64,01,8)  3.685795E-02  5.982340E-03  2.621694E-04  1.560633E-01
      FINE2COARSE - exchanging data between grids: dg = 02 and rg = 01  at cr = 02
        31 0001-01-01 01:02:00.00  1.440845E-03  8.810766E+01  8.810910E+01  3.600000E+10  01
                       (092,78,8)  3.608537E-02  9.041848E-03  8.061513E-04  1.612593E-01
        93 0001-01-01 01:02:00.00  1.642745E-03  8.822413E+01  8.822577E+01  3.263377E+09  02
                        (65,01,8)  3.720227E-02  6.146965E-03  3.137230E-04  1.578664E-01
        94 0001-01-01 01:02:40.00  1.684262E-03  8.822349E+01  8.822517E+01  3.263353E+09  02
                        (64,01,8)  3.767370E-02  6.259959E-03  2.094295E-04  1.596416E-01
        95 0001-01-01 01:03:20.00  1.726383E-03  8.822284E+01  8.822457E+01  3.263329E+09  02
                        (64,01,8)  3.808980E-02  6.404095E-03  2.575339E-04  1.613882E-01
      FINE2COARSE - exchanging data between grids: dg = 02 and rg = 01  at cr = 02
        32 0001-01-01 01:04:00.00  1.551678E-03  8.810767E+01  8.810922E+01  3.600000E+10  01
                       (092,78,8)  3.730370E-02  9.655313E-03  9.392196E-04  1.672395E-01
        96 0001-01-01 01:04:00.00  1.769088E-03  8.822220E+01  8.822396E+01  3.263305E+09  02
                        (65,01,8)  3.842988E-02  6.575096E-03  3.244125E-04  1.632019E-01
        97 0001-01-01 01:04:40.00  1.812331E-03  8.822163E+01  8.822344E+01  3.263284E+09  02
                        (64,01,8)  3.890387E-02  6.686695E-03  2.112781E-04  1.649646E-01
        98 0001-01-01 01:05:20.00  1.856171E-03  8.822106E+01  8.822292E+01  3.263263E+09  02
                        (64,01,8)  3.931872E-02  6.835682E-03  2.583799E-04  1.667152E-01
      FINE2COARSE - exchanging data between grids: dg = 02 and rg = 01  at cr = 02
        33 0001-01-01 01:06:00.00  1.666945E-03  8.810767E+01  8.810934E+01  3.600000E+10  01
                       (095,76,8)  3.853119E-02  1.030225E-02  1.000794E-03  1.732613E-01
        99 0001-01-01 01:06:00.00  1.900583E-03  8.822049E+01  8.822239E+01  3.263241E+09  02
                        (65,01,8)  3.965360E-02  7.013367E-03  3.328977E-04  1.685317E-01
       100 0001-01-01 01:06:40.00  1.945541E-03  8.822004E+01  8.822198E+01  3.263225E+09  02
                        (64,01,8)  4.012758E-02  7.125790E-03  2.137403E-04  1.702988E-01
       101 0001-01-01 01:07:20.00  1.991091E-03  8.821958E+01  8.822157E+01  3.263208E+09  02
                        (64,97,8)  4.064250E-02  7.006706E-03  4.760798E-04  1.720401E-01
      FINE2COARSE - exchanging data between grids: dg = 02 and rg = 01  at cr = 02
        34 0001-01-01 01:08:00.00  1.786584E-03  8.810768E+01  8.810947E+01  3.600000E+10  01
                       (095,76,8)  3.973953E-02  1.095154E-02  1.113395E-03  1.793286E-01
       102 0001-01-01 01:08:00.00  2.037196E-03  8.821913E+01  8.822117E+01  3.263191E+09  02
                        (65,01,8)  4.087185E-02  7.463952E-03  3.370182E-04  1.738543E-01
       103 0001-01-01 01:08:40.00  2.083852E-03  8.821884E+01  8.822092E+01  3.263180E+09  02
                        (64,01,8)  4.134674E-02  7.577851E-03  2.108283E-04  1.756302E-01
       104 0001-01-01 01:09:20.00  2.131090E-03  8.821854E+01  8.822067E+01  3.263169E+09  02
                        (64,97,8)  4.185496E-02  7.521234E-03  5.031544E-04  1.773640E-01
      FINE2COARSE - exchanging data between grids: dg = 02 and rg = 01  at cr = 02
        35 0001-01-01 01:10:00.00  1.910520E-03  8.810769E+01  8.810960E+01  3.600000E+10  01
                       (095,76,8)  4.096274E-02  1.163400E-02  1.192902E-03  1.854493E-01
       105 0001-01-01 01:10:00.00  2.178864E-03  8.821825E+01  8.822043E+01  3.263158E+09  02
                        (65,01,8)  4.208318E-02  7.927566E-03  3.371066E-04  1.791833E-01
       106 0001-01-01 01:10:40.00  2.227186E-03  8.821816E+01  8.822039E+01  3.263155E+09  02
                        (64,01,8)  4.255901E-02  8.041862E-03  2.096866E-04  1.809906E-01
       107 0001-01-01 01:11:20.00  2.276079E-03  8.821807E+01  8.822035E+01  3.263151E+09  02
                        (64,97,8)  4.306144E-02  8.056702E-03  5.321914E-04  1.827037E-01
      FINE2COARSE - exchanging data between grids: dg = 02 and rg = 01  at cr = 02
        36 0001-01-01 01:12:00.00  2.038674E-03  8.810769E+01  8.810973E+01  3.600000E+10  01
                       (095,76,8)  4.219901E-02  1.235168E-02  1.268354E-03  1.916200E-01
       108 0001-01-01 01:12:00.00  2.325481E-03  8.821799E+01  8.822031E+01  3.263148E+09  02
                        (61,94,8)  4.341902E-02  8.284459E-03  3.571694E-04  1.845321E-01
       109 0001-01-01 01:12:40.00  2.375386E-03  8.821812E+01  8.822050E+01  3.263153E+09  02
                        (58,91,8)  4.382810E-02  8.481608E-03  2.470128E-04  1.863468E-01
       110 0001-01-01 01:13:20.00  2.425794E-03  8.821826E+01  8.822069E+01  3.263158E+09  02
                        (64,97,8)  4.426706E-02  8.610592E-03  5.487657E-04  1.881250E-01
      FINE2COARSE - exchanging data between grids: dg = 02 and rg = 01  at cr = 02
        37 0001-01-01 01:14:00.00  2.170924E-03  8.810769E+01  8.810986E+01  3.600000E+10  01
                       (095,76,8)  4.343759E-02  1.309609E-02  1.357350E-03  1.978034E-01
       111 0001-01-01 01:14:00.00  2.476619E-03  8.821840E+01  8.822087E+01  3.263163E+09  02
                        (61,94,8)  4.462303E-02  8.841158E-03  3.531448E-04  1.900363E-01
       112 0001-01-01 01:14:40.00  2.527886E-03  8.821876E+01  8.822129E+01  3.263177E+09  02
                        (12,91,8)  4.517968E-02  8.936564E-03  2.171115E-04  1.920440E-01
       113 0001-01-01 01:15:20.00  2.579564E-03  8.821912E+01  8.822170E+01  3.263190E+09  02
                        (64,97,8)  4.545993E-02  9.177332E-03  5.408469E-04  1.939918E-01
      FINE2COARSE - exchanging data between grids: dg = 02 and rg = 01  at cr = 02
        38 0001-01-01 01:16:00.00  2.307110E-03  8.810769E+01  8.811000E+01  3.600000E+10  01
                       (095,76,8)  4.466918E-02  1.385793E-02  1.443773E-03  2.039646E-01
       114 0001-01-01 01:16:00.00  2.631554E-03  8.821948E+01  8.822211E+01  3.263203E+09  02
                        (13,94,8)  4.606542E-02  9.343749E-03  2.744656E-04  1.958758E-01
       115 0001-01-01 01:16:40.00  2.683885E-03  8.822005E+01  8.822273E+01  3.263224E+09  02
                        (12,91,8)  4.647869E-02  9.531533E-03  2.357933E-04  1.978757E-01
       116 0001-01-01 01:17:20.00  2.736496E-03  8.822062E+01  8.822336E+01  3.263245E+09  02
                        (17,97,8)  4.692168E-02  9.741776E-03  3.310251E-04  1.998095E-01
      FINE2COARSE - exchanging data between grids: dg = 02 and rg = 01  at cr = 02
        39 0001-01-01 01:18:00.00  2.446734E-03  8.810770E+01  8.811014E+01  3.600000E+10  01
                       (095,76,8)  4.588726E-02  1.463417E-02  1.509975E-03  2.101111E-01
       117 0001-01-01 01:18:00.00  2.789273E-03  8.822119E+01  8.822398E+01  3.263266E+09  02
                        (14,94,8)  4.736114E-02  9.946453E-03  2.757460E-04  2.016661E-01
       118 0001-01-01 01:18:40.00  2.842237E-03  8.822195E+01  8.822480E+01  3.263295E+09  02
                        (12,91,8)  4.775784E-02  1.013556E-02  2.431340E-04  2.036362E-01
       119 0001-01-01 01:19:20.00  2.895293E-03  8.822272E+01  8.822561E+01  3.263323E+09  02
                        (17,97,8)  4.819818E-02  1.033776E-02  3.165961E-04  2.055280E-01
      FINE2COARSE - exchanging data between grids: dg = 02 and rg = 01  at cr = 02
        40 0001-01-01 01:20:00.00  2.589232E-03  8.810770E+01  8.811029E+01  3.600000E+10  01
                       (095,76,8)  4.708443E-02  1.542420E-02  1.563674E-03  2.162594E-01
       120 0001-01-01 01:20:00.00  2.948309E-03  8.822348E+01  8.822643E+01  3.263351E+09  02
                        (14,94,8)  4.862617E-02  1.054693E-02  2.694712E-04  2.073422E-01
      WRT_RST     - wrote re-start    fields (Index=1,1) in record = 0000001               02
       121 0001-01-01 01:20:40.00  3.001278E-03  8.822440E+01  8.822740E+01  3.263385E+09  02
                        (12,91,8)  4.900275E-02  1.073530E-02  2.397781E-04  2.092507E-01
       122 0001-01-01 01:21:20.00  3.054063E-03  8.822532E+01  8.822837E+01  3.263419E+09  02
                        (17,97,8)  4.943316E-02  1.093098E-02  2.928861E-04  2.110812E-01
      FINE2COARSE - exchanging data between grids: dg = 02 and rg = 01  at cr = 02
        41 0001-01-01 01:22:00.00  2.733798E-03  8.810770E+01  8.811043E+01  3.600000E+10  01
                       (095,76,8)  4.825357E-02  1.622449E-02  1.622978E-03  2.229833E-01
       123 0001-01-01 01:22:00.00  3.106510E-03  8.822624E+01  8.822934E+01  3.263453E+09  02
                        (14,94,8)  4.984739E-02  1.113974E-02  2.619897E-04  2.128474E-01
       124 0001-01-01 01:22:40.00  3.158554E-03  8.822727E+01  8.823043E+01  3.263491E+09  02
                        (20,91,8)  5.017911E-02  1.134296E-02  2.431529E-04  2.146524E-01
       125 0001-01-01 01:23:20.00  3.210004E-03  8.822830E+01  8.823151E+01  3.263529E+09  02
                        (17,97,8)  5.060712E-02  1.151548E-02  2.748545E-04  2.163897E-01
      FINE2COARSE - exchanging data between grids: dg = 02 and rg = 01  at cr = 02
        42 0001-01-01 01:24:00.00  2.879305E-03  8.810770E+01  8.811058E+01  3.600000E+10  01
                       (095,76,8)  4.939007E-02  1.703111E-02  1.696552E-03  2.301300E-01
       126 0001-01-01 01:24:00.00  3.260664E-03  8.822933E+01  8.823259E+01  3.263567E+09  02
                        (14,94,8)  5.099415E-02  1.171997E-02  2.530657E-04  2.180470E-01
       127 0001-01-01 01:24:40.00  3.310382E-03  8.823043E+01  8.823374E+01  3.263608E+09  02
                        (19,90,8)  5.130386E-02  1.192619E-02  2.237458E-04  2.197113E-01
       128 0001-01-01 01:25:20.00  3.358886E-03  8.823153E+01  8.823488E+01  3.263649E+09  02
                        (01,97,8)  5.176584E-02  1.208574E-02  2.119300E-04  2.215288E-01
      FINE2COARSE - exchanging data between grids: dg = 02 and rg = 01  at cr = 02
        43 0001-01-01 01:26:00.00  3.024147E-03  8.810770E+01  8.811073E+01  3.600000E+10  01
                       (095,76,8)  5.049245E-02  1.784407E-02  1.780534E-03  2.372281E-01
       129 0001-01-01 01:26:00.00  3.405910E-03  8.823262E+01  8.823603E+01  3.263689E+09  02
                        (14,94,8)  5.202857E-02  1.228031E-02  2.427849E-04  2.232719E-01
       130 0001-01-01 01:26:40.00  3.451178E-03  8.823376E+01  8.823721E+01  3.263731E+09  02
                        (01,91,8)  5.251754E-02  1.243681E-02  1.438438E-04  2.249699E-01
       131 0001-01-01 01:27:20.00  3.494303E-03  8.823489E+01  8.823838E+01  3.263773E+09  02
                        (01,97,8)  5.289701E-02  1.265611E-02  1.264543E-04  2.266674E-01
      FINE2COARSE - exchanging data between grids: dg = 02 and rg = 01  at cr = 02
[...]
                        (66,90,8)  1.117226E-01  3.792807E-02  6.977781E-03  4.921089E-01
      FINE2COARSE - exchanging data between grids: dg = 02 and rg = 01  at cr = 02
      1424 0001-01-02 23:28:00.00  4.905271E-03  8.815025E+01  8.815515E+01  3.600000E+10  01
                       (047,37,5)  6.230624E-02  4.184909E-02  7.319349E-02  4.661758E-01
      4272 0001-01-02 23:28:00.00  7.344742E-03  8.833088E+01  8.833823E+01  3.265063E+09  02
                        (66,90,8)  1.117158E-01  3.791085E-02  7.147655E-03  4.920528E-01
      4273 0001-01-02 23:28:40.00  7.341839E-03  8.833109E+01  8.833843E+01  3.265070E+09  02
                        (66,90,8)  1.116268E-01  3.783893E-02  6.462728E-03  4.915970E-01
      4274 0001-01-02 23:29:20.00  7.338828E-03  8.833130E+01  8.833864E+01  3.265078E+09  02
                        (66,90,8)  1.115807E-01  3.768919E-02  6.966657E-03  4.912032E-01
      FINE2COARSE - exchanging data between grids: dg = 02 and rg = 01  at cr = 02
      1425 0001-01-02 23:30:00.00  4.902933E-03  8.815025E+01  8.815515E+01  3.600000E+10  01
                       (047,37,5)  6.233614E-02  4.198832E-02  7.445996E-02  4.650930E-01
      WRT_HIS     - wrote history     fields (Index=1,2) in record = 0000096               01
      WRT_AVG     - wrote averaged    fields             in record = 0000095               01
      4275 0001-01-02 23:30:00.00  7.335867E-03  8.833152E+01  8.833885E+01  3.265085E+09  02
                        (66,90,8)  1.115579E-01  3.766465E-02  7.068428E-03  4.910746E-01
      WRT_HIS     - wrote history     fields (Index=1,2) in record = 0000096               02
      WRT_AVG     - wrote averaged    fields             in record = 0000095               02
      4276 0001-01-02 23:30:40.00  7.332723E-03  8.833174E+01  8.833907E+01  3.265093E+09  02
                        (66,90,8)  1.114405E-01  3.758987E-02  6.365808E-03  4.905026E-01
      4277 0001-01-02 23:31:20.00  7.329495E-03  8.833196E+01  8.833929E+01  3.265101E+09  02
                        (66,90,8)  1.113791E-01  3.742124E-02  6.957312E-03  4.900249E-01
      FINE2COARSE - exchanging data between grids: dg = 02 and rg = 01  at cr = 02
      1426 0001-01-02 23:32:00.00  4.900336E-03  8.815025E+01  8.815515E+01  3.600000E+10  01
                       (047,37,5)  6.231109E-02  4.212118E-02  7.565499E-02  4.683497E-01
      4278 0001-01-02 23:32:00.00  7.326306E-03  8.833218E+01  8.833951E+01  3.265109E+09  02
                        (66,90,8)  1.113409E-01  3.739283E-02  6.986559E-03  4.898318E-01
      4279 0001-01-02 23:32:40.00  7.322924E-03  8.833241E+01  8.833974E+01  3.265117E+09  02
                        (66,90,8)  1.111963E-01  3.731877E-02  6.271822E-03  4.891529E-01
      4280 0001-01-02 23:33:20.00  7.319464E-03  8.833265E+01  8.833997E+01  3.265126E+09  02
                        (66,90,8)  1.111212E-01  3.713468E-02  6.951049E-03  4.886027E-01
      FINE2COARSE - exchanging data between grids: dg = 02 and rg = 01  at cr = 02
      1427 0001-01-02 23:34:00.00  4.897494E-03  8.815026E+01  8.815516E+01  3.600000E+10  01
                       (047,37,5)  6.223456E-02  4.224767E-02  7.678548E-02  4.711662E-01
      4281 0001-01-02 23:34:00.00  7.316056E-03  8.833288E+01  8.834019E+01  3.265134E+09  02
                        (66,90,8)  1.110691E-01  3.710591E-02  6.903269E-03  4.883558E-01
      4282 0001-01-02 23:34:40.00  7.312424E-03  8.833312E+01  8.834043E+01  3.265143E+09  02
                        (66,90,8)  1.108991E-01  3.703601E-02  6.182296E-03  4.875821E-01
      4283 0001-01-02 23:35:20.00  7.308740E-03  8.833337E+01  8.834068E+01  3.265152E+09  02
                        (66,90,8)  1.108123E-01  3.683948E-02  6.949831E-03  4.869720E-01
      FINE2COARSE - exchanging data between grids: dg = 02 and rg = 01  at cr = 02
      1428 0001-01-02 23:36:00.00  4.894403E-03  8.815026E+01  8.815516E+01  3.600000E+10  01
                       (047,37,5)  6.211149E-02  4.236945E-02  7.786164E-02  4.735382E-01
      4284 0001-01-02 23:36:00.00  7.305101E-03  8.833361E+01  8.834092E+01  3.265160E+09  02
                        (66,90,8)  1.107480E-01  3.681334E-02  6.820679E-03  4.868399E-01
      4285 0001-01-02 23:36:40.00  7.301244E-03  8.833387E+01  8.834117E+01  3.265169E+09  02
                        (66,90,8)  1.105545E-01  3.675030E-02  6.098676E-03  4.869457E-01
      4286 0001-01-02 23:37:20.00  7.297353E-03  8.833412E+01  8.834142E+01  3.265179E+09  02
                        (66,90,8)  1.104582E-01  3.654360E-02  6.953816E-03  4.870739E-01
      FINE2COARSE - exchanging data between grids: dg = 02 and rg = 01  at cr = 02
      1429 0001-01-02 23:38:00.00  4.891049E-03  8.815026E+01  8.815516E+01  3.600000E+10  01
                       (047,37,5)  6.194707E-02  4.248691E-02  7.888813E-02  4.754632E-01
      4287 0001-01-02 23:38:00.00  7.293485E-03  8.833438E+01  8.834167E+01  3.265188E+09  02
                        (66,90,8)  1.103836E-01  3.652239E-02  6.738637E-03  4.875650E-01
      4288 0001-01-02 23:38:40.00  7.289402E-03  8.833465E+01  8.834194E+01  3.265198E+09  02
                        (66,90,8)  1.101692E-01  3.646850E-02  6.019630E-03  4.875145E-01
      4289 0001-01-02 23:39:20.00  7.285299E-03  8.833492E+01  8.834220E+01  3.265207E+09  02
                        (66,90,8)  1.100650E-01  3.625297E-02  6.960310E-03  4.875902E-01
      FINE2COARSE - exchanging data between grids: dg = 02 and rg = 01  at cr = 02
      1430 0001-01-02 23:40:00.00  4.887424E-03  8.815027E+01  8.815515E+01  3.600000E+10  01
                       (047,37,5)  6.174679E-02  4.260008E-02  7.986876E-02  4.769045E-01
      4290 0001-01-02 23:40:00.00  7.281235E-03  8.833519E+01  8.834247E+01  3.265217E+09  02
                        (66,90,8)  1.099811E-01  3.623837E-02  6.655212E-03  4.880329E-01
      4291 0001-01-02 23:40:40.00  7.276931E-03  8.833547E+01  8.834275E+01  3.265227E+09  02
                        (66,90,8)  1.097476E-01  3.619513E-02  5.943242E-03  4.878266E-01
      4292 0001-01-02 23:41:20.00  7.272625E-03  8.833576E+01  8.834303E+01  3.265238E+09  02
                        (66,91,8)  1.104481E-01  3.871828E-02  3.795212E-03  4.878533E-01
      FINE2COARSE - exchanging data between grids: dg = 02 and rg = 01  at cr = 02
      1431 0001-01-02 23:42:00.00  4.883548E-03  8.815027E+01  8.815515E+01  3.600000E+10  01
                       (048,37,5)  6.961934E-02  3.822187E-02  7.868169E-02  4.778517E-01
      4293 0001-01-02 23:42:00.00  7.268341E-03  8.833604E+01  8.834331E+01  3.265248E+09  02
                        (66,91,8)  1.104933E-01  3.888298E-02  2.990563E-03  4.882502E-01
      4294 0001-01-02 23:42:40.00  7.263814E-03  8.833634E+01  8.834361E+01  3.265259E+09  02
                        (66,91,8)  1.104182E-01  3.884588E-02  2.537957E-03  4.878919E-01
      4295 0001-01-02 23:43:20.00  7.259278E-03  8.833664E+01  8.834390E+01  3.265270E+09  02
                        (66,91,8)  1.104346E-01  3.879275E-02  3.773586E-03  4.878727E-01
      FINE2COARSE - exchanging data between grids: dg = 02 and rg = 01  at cr = 02
      1432 0001-01-02 23:44:00.00  4.879410E-03  8.815027E+01  8.815515E+01  3.600000E+10  01
                       (048,37,5)  6.957755E-02  3.809558E-02  8.137262E-02  4.783237E-01
      4296 0001-01-02 23:44:00.00  7.254763E-03  8.833694E+01  8.834419E+01  3.265280E+09  02
                        (66,91,8)  1.104636E-01  3.897067E-02  2.851502E-03  4.882248E-01
      4297 0001-01-02 23:44:40.00  7.249985E-03  8.833725E+01  8.834450E+01  3.265292E+09  02
                        (66,91,8)  1.103477E-01  3.894101E-02  2.446262E-03  4.877173E-01
      4298 0001-01-02 23:45:20.00  7.245215E-03  8.833757E+01  8.834481E+01  3.265303E+09  02
                        (66,91,8)  1.103512E-01  3.889190E-02  3.761134E-03  4.876538E-01
      FINE2COARSE - exchanging data between grids: dg = 02 and rg = 01  at cr = 02
      1433 0001-01-02 23:46:00.00  4.875026E-03  8.815027E+01  8.815515E+01  3.600000E+10  01
                       (048,37,5)  6.947299E-02  3.796609E-02  8.399843E-02  4.783153E-01
      4299 0001-01-02 23:46:00.00  7.240453E-03  8.833788E+01  8.834512E+01  3.265315E+09  02
                        (66,91,8)  1.103656E-01  3.907974E-02  2.723546E-03  4.879635E-01
      4300 0001-01-02 23:46:40.00  7.235413E-03  8.833822E+01  8.834545E+01  3.265327E+09  02
                        (66,91,8)  1.102118E-01  3.905449E-02  2.369296E-03  4.873137E-01
      4301 0001-01-02 23:47:20.00  7.230420E-03  8.833855E+01  8.834578E+01  3.265339E+09  02
                        (66,91,8)  1.102049E-01  3.900615E-02  3.758412E-03  4.872117E-01
      FINE2COARSE - exchanging data between grids: dg = 02 and rg = 01  at cr = 02
      1434 0001-01-02 23:48:00.00  4.870435E-03  8.815027E+01  8.815514E+01  3.600000E+10  01
                       (048,37,5)  6.931172E-02  3.783186E-02  8.655481E-02  4.778329E-01
      4302 0001-01-02 23:48:00.00  7.225427E-03  8.833888E+01  8.834610E+01  3.265351E+09  02
                        (66,91,8)  1.102072E-01  3.919966E-02  2.610826E-03  4.874842E-01
      4303 0001-01-02 23:48:40.00  7.220132E-03  8.833923E+01  8.834645E+01  3.265363E+09  02
                        (66,91,8)  1.100191E-01  3.917487E-02  2.309922E-03  4.867015E-01
      4304 0001-01-02 23:49:20.00  7.214903E-03  8.833957E+01  8.834679E+01  3.265376E+09  02
                        (66,91,8)  1.100049E-01  3.912301E-02  3.767345E-03  4.865677E-01
      FINE2COARSE - exchanging data between grids: dg = 02 and rg = 01  at cr = 02
      1435 0001-01-02 23:50:00.00  4.865648E-03  8.815027E+01  8.815514E+01  3.600000E+10  01
                       (048,37,5)  6.909990E-02  3.769099E-02  8.903746E-02  4.768978E-01
      4305 0001-01-02 23:50:00.00  7.209654E-03  8.833992E+01  8.834713E+01  3.265388E+09  02
                        (66,91,8)  1.099983E-01  3.931714E-02  2.515417E-03  4.868089E-01
      4306 0001-01-02 23:50:40.00  7.204142E-03  8.834029E+01  8.834749E+01  3.265402E+09  02
                        (66,91,8)  1.097805E-01  3.928784E-02  2.270969E-03  4.859051E-01
      4307 0001-01-02 23:51:20.00  7.198686E-03  8.834065E+01  8.834785E+01  3.265415E+09  02
                        (66,91,8)  1.097622E-01  3.922805E-02  3.790107E-03  4.857463E-01
      FINE2COARSE - exchanging data between grids: dg = 02 and rg = 01  at cr = 02
      1436 0001-01-02 23:52:00.00  4.860641E-03  8.815028E+01  8.815514E+01  3.600000E+10  01
                       (048,37,5)  6.884520E-02  3.754261E-02  9.144608E-02  4.754783E-01
      4308 0001-01-02 23:52:00.00  7.193232E-03  8.834101E+01  8.834821E+01  3.265428E+09  02
                        (66,91,8)  1.097499E-01  3.941742E-02  2.442030E-03  4.859616E-01
      4309 0001-01-02 23:52:40.00  7.187504E-03  8.834140E+01  8.834858E+01  3.265442E+09  02
                        (66,91,8)  1.095075E-01  3.937824E-02  2.255182E-03  4.849491E-01
      4310 0001-01-02 23:53:20.00  7.181841E-03  8.834178E+01  8.834896E+01  3.265456E+09  02
                        (66,91,8)  1.094882E-01  3.930601E-02  3.828087E-03  4.847718E-01
      FINE2COARSE - exchanging data between grids: dg = 02 and rg = 01  at cr = 02
      1437 0001-01-02 23:54:00.00  4.855478E-03  8.815028E+01  8.815513E+01  3.600000E+10  01
                       (048,37,5)  6.855635E-02  3.738565E-02  9.377141E-02  4.736219E-01
      4311 0001-01-02 23:54:00.00  7.176174E-03  8.834216E+01  8.834934E+01  3.265470E+09  02
                        (66,92,7)  8.148384E-02  4.426430E-02  2.614659E-02  4.849694E-01
      4312 0001-01-02 23:54:40.00  7.170227E-03  8.834256E+01  8.834973E+01  3.265484E+09  02
                        (66,92,7)  8.118616E-02  4.417927E-02  2.669598E-02  4.838608E-01
      4313 0001-01-02 23:55:20.00  7.164364E-03  8.834296E+01  8.835012E+01  3.265499E+09  02
                        (66,91,8)  1.091945E-01  3.934381E-02  3.883941E-03  4.836716E-01
      FINE2COARSE - exchanging data between grids: dg = 02 and rg = 01  at cr = 02
      1438 0001-01-02 23:56:00.00  4.850119E-03  8.815028E+01  8.815513E+01  3.600000E+10  01
                       (048,37,5)  6.824214E-02  3.721850E-02  9.599206E-02  4.713426E-01
      4314 0001-01-02 23:56:00.00  7.158466E-03  8.834336E+01  8.835052E+01  3.265514E+09  02
                        (66,92,7)  8.102648E-02  4.473064E-02  2.855543E-02  4.838494E-01
      4315 0001-01-02 23:56:40.00  7.152301E-03  8.834378E+01  8.835093E+01  3.265529E+09  02
                        (66,92,7)  8.071234E-02  4.462889E-02  2.898083E-02  4.826552E-01
      4316 0001-01-02 23:57:20.00  7.146226E-03  8.834419E+01  8.835134E+01  3.265544E+09  02
                        (66,92,7)  8.063828E-02  4.483598E-02  2.879724E-02  4.824540E-01
      FINE2COARSE - exchanging data between grids: dg = 02 and rg = 01  at cr = 02
      1439 0001-01-02 23:58:00.00  4.844589E-03  8.815027E+01  8.815512E+01  3.600000E+10  01
                       (048,37,5)  6.791251E-02  3.704058E-02  9.809777E-02  4.686591E-01
      4317 0001-01-02 23:58:00.00  7.140110E-03  8.834461E+01  8.835175E+01  3.265559E+09  02
                        (66,92,7)  8.055429E-02  4.517226E-02  3.073321E-02  4.826133E-01
      4318 0001-01-02 23:58:40.00  7.133712E-03  8.834504E+01  8.835218E+01  3.265575E+09  02
                        (66,92,7)  8.022909E-02  4.505173E-02  3.101906E-02  4.813424E-01
      4319 0001-01-02 23:59:20.00  7.127426E-03  8.834548E+01  8.835260E+01  3.265591E+09  02
                        (66,92,7)  8.015903E-02  4.525514E-02  3.074145E-02  4.811315E-01
      FINE2COARSE - exchanging data between grids: dg = 02 and rg = 01  at cr = 02
      1440 0001-01-03 00:00:00.00  4.838897E-03  8.815027E+01  8.815511E+01  3.600000E+10  01
                       (048,37,5)  6.757732E-02  3.685120E-02  1.000841E-01  4.656006E-01
      WRT_HIS     - wrote history     fields (Index=1,1) in record = 0000097               01
      WRT_AVG     - wrote averaged    fields             in record = 0000096               01
      WRT_RST     - wrote re-start    fields (Index=1,1) in record = 0000002               01
      4320 0001-01-03 00:00:00.00  7.121111E-03  8.834591E+01  8.835303E+01  3.265607E+09  02
                        (66,92,7)  8.007738E-02  4.558065E-02  3.262212E-02  4.812711E-01
      WRT_HIS     - wrote history     fields (Index=1,1) in record = 0000097               02
      WRT_AVG     - wrote averaged    fields             in record = 0000096               02
      WRT_RST     - wrote re-start    fields (Index=1,1) in record = 0000002               02

 Elapsed CPU time (seconds):

 Thread #    0 CPU:     362.542
 Total:                 362.542

 Nonlinear model elapsed CPU time profile, Grid: 01

  Allocation and array initialization ..............         0.032  ( 0.0090 %)
  Ocean state initialization .......................         0.003  ( 0.0009 %)
  Reading of input data ............................         0.003  ( 0.0008 %)
  Processing of input data .........................         0.354  ( 0.0977 %)
  Processing of output time averaged data ..........         3.247  ( 0.8956 %)
  Computation of vertical boundary conditions ......         0.340  ( 0.0938 %)
  Computation of global information integrals ......         0.860  ( 0.2371 %)
  Writing of output data ...........................         1.081  ( 0.2981 %)
  Model 2D kernel ..................................        86.689  (23.9115 %)
  2D/3D coupling, vertical metrics .................         0.784  ( 0.2161 %)
  Omega vertical velocity ..........................         0.506  ( 0.1396 %)
  Equation of state for seawater ...................         1.456  ( 0.4016 %)
  GLS vertical mixing parameterization .............        25.418  ( 7.0112 %)
  3D equations right-side terms ....................         2.779  ( 0.7666 %)
  3D equations predictor step ......................         3.680  ( 1.0150 %)
  Pressure gradient ................................         1.967  ( 0.5425 %)
  Corrector time-step for 3D momentum ..............         2.435  ( 0.6717 %)
  Corrector time-step for tracers ..................         2.568  ( 0.7083 %)
  Nesting algorithm ................................         0.350  ( 0.0967 %)
  Reading model state vector .......................         0.005  ( 0.0014 %)
                                              Total:       134.558   37.1151

 Nonlinear model elapsed CPU time profile, Grid: 02

  Allocation and array initialization ..............         0.032  ( 0.0090 %)
  Ocean state initialization .......................         0.003  ( 0.0008 %)
  Reading of input data ............................         0.006  ( 0.0016 %)
  Processing of input data .........................         0.975  ( 0.2690 %)
  Processing of output time averaged data ..........         7.616  ( 2.1007 %)
  Computation of vertical boundary conditions ......         0.840  ( 0.2316 %)
  Computation of global information integrals ......         2.201  ( 0.6070 %)
  Writing of output data ...........................         0.877  ( 0.2420 %)
  Model 2D kernel ..................................       104.421  (28.8025 %)
  2D/3D coupling, vertical metrics .................         1.351  ( 0.3728 %)
  Omega vertical velocity ..........................         1.107  ( 0.3053 %)
  Equation of state for seawater ...................         4.119  ( 1.1361 %)
  GLS vertical mixing parameterization .............        61.756  (17.0340 %)
  3D equations right-side terms ....................         6.246  ( 1.7230 %)
  3D equations predictor step ......................         8.392  ( 2.3147 %)
  Pressure gradient ................................         4.140  ( 1.1420 %)
  Corrector time-step for 3D momentum ..............         6.251  ( 1.7242 %)
  Corrector time-step for tracers ..................         6.785  ( 1.8715 %)
  Nesting algorithm ................................         3.249  ( 0.8962 %)
  Reading model state vector .......................         0.003  ( 0.0008 %)
                                              Total:       220.371   60.7848

  Unique code regions profiled .....................       354.929   97.9000 %
  Residual, non-profiled code ......................         7.614    2.1000 %


 All percentages are with respect to total time =          362.542


>>>>>>>>>>>>>>>>>>>>>>>>>>>>>>>>>>>>>>>>>>>>>>>>>>>>>>>>>>>>>>>>>>>>>>>>>>>>>>>>

 Dynamic and Automatic memory (MB) usage for Grid 01:  100x80x8  tiling: 1x1

     tile          Dynamic        Automatic            USAGE

        0            38.72             4.62            43.34

      SUM            38.72             4.62            43.34

 Dynamic and Automatic memory (MB) usage for Grid 02:  66x99x8  tiling: 1x1

     tile          Dynamic        Automatic            USAGE

        0            33.64             3.83            37.48

      SUM            33.64             3.83            37.48

    TOTAL            72.36             8.46            80.82

<<<<<<<<<<<<<<<<<<<<<<<<<<<<<<<<<<<<<<<<<<<<<<<<<<<<<<<<<<<<<<<<<<<<<<<<<<<<<<<<

 ROMS/TOMS - Output NetCDF summary for Grid 01:
             number of time records written in HISTORY file = 00000097
             number of time records written in RESTART file = 00000002
             number of time records written in AVERAGE file = 00000096

 ROMS/TOMS - Output NetCDF summary for Grid 02:
             number of time records written in HISTORY file = 00000097
             number of time records written in RESTART file = 00000002
             number of time records written in AVERAGE file = 00000096

 Analytical header files used:

     ROMS/Functionals/ana_btflux.h
     /home/hadfield/ROMS/roms-test-mgh/lake_jersey/Refined/ana_smflux.h
     /home/hadfield/ROMS/roms-test-mgh/lake_jersey/Refined/ana_stflux.h

 ROMS/TOMS: DONE... Thursday - January 31, 2019 -  5:16:34 PM
