--------------------------------------------------------------------------------
 Model Input Parameters:  ROMS/TOMS version 3.7  
                          Tuesday - July 17, 2018 -  4:44:14 PM
 --------------------------------------------------------------------------------

 Wind-Driven Upwelling/Downwelling over a Periodic Channel

 Operating system : Linux
 CPU/hardware     : x86_64
 Compiler system  : gfortran
 Compiler command : /usr/bin/gfortran
 Compiler flags   : -frepack-arrays -O3 -ffast-math -

 Git Origin URL: git@github.com:hadfieldnz/roms-trunk-mgh.git
 Git Revision  : master commit 980b1fa2c4d10065239c7f7761b119b437a48825
 Git Status    : The working tree is clean

 Host Name     : niwa-1019320.niwa.local
 Local Root    : /home/hadfield/ROMS/roms-trunk-mgh
 Header Dir    : /home/hadfield/ROMS/roms-test-mgh/upwelling
 Header file   : upwelling.h
 Analytical Dir: /home/hadfield/ROMS/roms-test-mgh/upwelling

 Resolution, Grid 01: 0041x0080x016,  Parallel Threads:  1,  Tiling: 003x003


 Physical Parameters, Grid: 01
 =============================

        288  ntimes            Number of timesteps for 3-D equations.
    300.000  dt                Timestep size (s) for 3-D equations.
         30  ndtfast           Number of timesteps for 2-D equations between
                                 each 3D timestep.
          1  ERstr             Starting ensemble/perturbation run number.
          1  ERend             Ending ensemble/perturbation run number.
          0  nrrec             Number of restart records to read from disk.
          T  LcycleRST         Switch to recycle time-records in restart file.
         72  nRST              Number of timesteps between the writing of data
                                 into restart fields.
          1  ninfo             Number of timesteps between print of information
                                 to standard output.
          T  ldefout           Switch to create a new output NetCDF file(s).
         72  nHIS              Number of timesteps between the writing fields
                                 into history file.
          0  nQCK              Number of timesteps between the writing fields
                                 into quicksave file.
          1  ntsAVG            Starting timestep for the accumulation of output
                                 time-averaged data.
         72  nAVG              Number of timesteps between the writing of
                                 time-averaged data into averages file.
          1  ntsDIA            Starting timestep for the accumulation of output
                                 time-averaged diagnostics data.
         72  nDIA              Number of timesteps between the writing of
                                 time-averaged data into diagnostics file.
          F  LuvSponge         Turning OFF sponge on horizontal momentum.
          F  LtracerSponge(01) Turning OFF sponge on tracer 01: temp
          F  LtracerSponge(02) Turning OFF sponge on tracer 02: salt
 1.0000E-06  Akt_bak(01)       Background vertical mixing coefficient (m2/s)
                                 for tracer 01: temp
 1.0000E-06  Akt_bak(02)       Background vertical mixing coefficient (m2/s)
                                 for tracer 02: salt
 1.0000E-05  Akv_bak           Background vertical mixing coefficient (m2/s)
                                 for momentum.
 3.0000E-04  rdrg              Linear bottom drag coefficient (m/s).
 3.0000E-03  rdrg2             Quadratic bottom drag coefficient.
 2.0000E-02  Zob               Bottom roughness (m).
          2  Vtransform        S-coordinate transformation equation.
          4  Vstretching       S-coordinate stretching function.
 3.0000E+00  theta_s           S-coordinate surface control parameter.
 0.0000E+00  theta_b           S-coordinate bottom  control parameter.
     25.000  Tcline            S-coordinate surface/bottom layer width (m) used
                                 in vertical coordinate stretching.
   1025.000  rho0              Mean density (kg/m3) for Boussinesq approximation.
      0.000  dstart            Time-stamp assigned to model initialization (days).
       0.00  time_ref          Reference time for units attribute (yyyymmdd.dd)
 0.0000E+00  Tnudg(01)         Nudging/relaxation time scale (days)
                                 for tracer 01: temp
 0.0000E+00  Tnudg(02)         Nudging/relaxation time scale (days)
                                 for tracer 02: salt
 0.0000E+00  Znudg             Nudging/relaxation time scale (days)
                                 for free-surface.
 0.0000E+00  M2nudg            Nudging/relaxation time scale (days)
                                 for 2D momentum.
 0.0000E+00  M3nudg            Nudging/relaxation time scale (days)
                                 for 3D momentum.
 0.0000E+00  obcfac            Factor between passive and active
                                 open boundary conditions.
          F  VolCons(1)        NLM western  edge boundary volume conservation.
          F  VolCons(2)        NLM southern edge boundary volume conservation.
          F  VolCons(3)        NLM eastern  edge boundary volume conservation.
          F  VolCons(4)        NLM northern edge boundary volume conservation.
     14.000  T0                Background potential temperature (C) constant.
     35.000  S0                Background salinity (PSU) constant.
   1027.000  R0                Background density (kg/m3) used in linear Equation
                                 of State.
 1.7000E-04  Tcoef             Thermal expansion coefficient (1/Celsius).
 7.6000E-04  Scoef             Saline contraction coefficient (1/PSU).
      1.000  gamma2            Slipperiness variable: free-slip (1.0) or 
                                                      no-slip (-1.0).
          F  LuvSrc            Turning OFF momentum point Sources/Sinks.
          F  LwSrc             Turning OFF volume influx point Sources/Sinks.
          F  LtracerSrc(01)    Turning OFF point Sources/Sinks on tracer 01: temp
          F  LtracerSrc(02)    Turning OFF point Sources/Sinks on tracer 02: salt
          F  LsshCLM           Turning OFF processing of SSH climatology.
          F  Lm2CLM            Turning OFF processing of 2D momentum climatology.
          F  Lm3CLM            Turning OFF processing of 3D momentum climatology.
          F  LtracerCLM(01)    Turning OFF processing of climatology tracer 01: temp
          F  LtracerCLM(02)    Turning OFF processing of climatology tracer 02: salt
          F  LnudgeM2CLM       Turning OFF nudging of 2D momentum climatology.
          F  LnudgeM3CLM       Turning OFF nudging of 3D momentum climatology.
          F  LnudgeTCLM(01)    Turning OFF nudging of climatology tracer 01: temp
          F  LnudgeTCLM(02)    Turning OFF nudging of climatology tracer 02: salt

          T  Hout(idFsur)      Write out free-surface.
          T  Hout(idUbar)      Write out 2D U-momentum component.
          T  Hout(idVbar)      Write out 2D V-momentum component.
          T  Hout(idUvel)      Write out 3D U-momentum component.
          T  Hout(idVvel)      Write out 3D V-momentum component.
          T  Hout(idWvel)      Write out W-momentum component.
          T  Hout(idOvel)      Write out omega vertical velocity.
          T  Hout(idTvar)      Write out tracer 01: temp
          T  Hout(idTvar)      Write out tracer 02: salt
          T  Hout(idDano)      Write out density anomaly.

          T  Aout(idFsur)      Write out averaged free-surface.
          T  Aout(idUbar)      Write out averaged 2D U-momentum component.
          T  Aout(idVbar)      Write out averaged 2D V-momentum component.
          T  Aout(idUvel)      Write out averaged 3D U-momentum component.
          T  Aout(idVvel)      Write out averaged 3D V-momentum component.
          T  Aout(idWvel)      Write out averaged W-momentum component.
          T  Aout(idOvel)      Write out averaged omega vertical velocity.
          T  Aout(idTvar)      Write out averaged tracer 01: temp
          T  Aout(idTvar)      Write out averaged tracer 02: salt
          T  Aout(idDano)      Write out averaged density anomaly.

          T  Dout(M2rate)      Write out 2D momentum acceleration.
          T  Dout(M2pgrd)      Write out 2D momentum pressure gradient.
          T  Dout(M2fcor)      Write out 2D momentum Coriolis force.
          T  Dout(M2hadv)      Write out 2D momentum horizontal advection.
          T  Dout(M2xadv)      Write out 2D momentum horizontal X-advection.
          T  Dout(M2yadv)      Write out 2D momentum horizontal Y-advection.
          T  Dout(M2sstr)      Write out 2D momentum surface stress.
          T  Dout(M2bstr)      Write out 2D momentum bottom stress.

          T  Dout(M3rate)      Write out 3D momentum acceleration.
          T  Dout(M3pgrd)      Write out 3D momentum pressure gradient.
          T  Dout(M3fcor)      Write out 3D momentum Coriolis force.
          T  Dout(M3hadv)      Write out 3D momentum horizontal advection.
          T  Dout(M3xadv)      Write out 3D momentum horizontal X-advection.
          T  Dout(M3yadv)      Write out 3D momentum horizontal Y-advection.
          T  Dout(M3vadv)      Write out 3D momentum vertical advection.
          T  Dout(M3vvis)      Write out 3D momentum vertical viscosity.

          T  Dout(iTrate)      Write out rate of change of tracer 01: temp
          T  Dout(iTrate)      Write out rate of change of tracer 02: salt
          T  Dout(iThadv)      Write out horizontal advection, tracer 01: temp
          T  Dout(iThadv)      Write out horizontal advection, tracer 02: salt
          T  Dout(iTxadv)      Write out horizontal X-advection, tracer 01: temp
          T  Dout(iTxadv)      Write out horizontal X-advection, tracer 02: salt
          T  Dout(iTyadv)      Write out horizontal Y-advection, tracer 01: temp
          T  Dout(iTyadv)      Write out horizontal Y-advection, tracer 02: salt
          T  Dout(iTvadv)      Write out vertical advection, tracer 01: temp
          T  Dout(iTvadv)      Write out vertical advection, tracer 02: salt
          T  Dout(iTvdif)      Write out vertical diffusion, tracer 01: temp
          T  Dout(iTvdif)      Write out vertical diffusion, tracer 02: salt

 Output/Input Files:

             Output Restart File:  ocean_rst.nc
             Output History File:  ocean_his.nc
            Output Averages File:  ocean_avg.nc
         Output Diagnostics File:  ocean_dia.nc

 Tile partition information for Grid 01:  0041x0080x0016  tiling: 003x003

     tile     Istr     Iend     Jstr     Jend     Npts

        0        1       14        1       27     6048
        1       15       28        1       27     6048
        2       29       41        1       27     5616
        3        1       14       28       54     6048
        4       15       28       28       54     6048
        5       29       41       28       54     5616
        6        1       14       55       80     5824
        7       15       28       55       80     5824
        8       29       41       55       80     5408

 Tile minimum and maximum fractional coordinates for Grid 01:
   (interior points only)

     tile     Xmin     Xmax     Ymin     Ymax     grid

        0    -1.50    43.50     0.50    82.50  RHO-points
        1    -2.50    43.50     0.50    82.50  RHO-points
        2    -2.50    42.50     0.50    82.50  RHO-points
        3    -1.50    43.50    -0.50    82.50  RHO-points
        4    -2.50    43.50    -0.50    82.50  RHO-points
        5    -2.50    42.50    -0.50    82.50  RHO-points
        6    -1.50    43.50    -0.50    81.50  RHO-points
        7    -2.50    43.50    -0.50    81.50  RHO-points
        8    -2.50    42.50    -0.50    81.50  RHO-points

        0    -2.00    43.50     0.50    82.50    U-points
        1    -2.50    43.50     0.50    82.50    U-points
        2    -2.50    42.00     0.50    82.50    U-points
        3    -2.00    43.50    -0.50    82.50    U-points
        4    -2.50    43.50    -0.50    82.50    U-points
        5    -2.50    42.00    -0.50    82.50    U-points
        6    -2.00    43.50    -0.50    81.50    U-points
        7    -2.50    43.50    -0.50    81.50    U-points
        8    -2.50    42.00    -0.50    81.50    U-points

        0    -1.50    43.50     0.00    82.50    V-points
        1    -2.50    43.50     0.00    82.50    V-points
        2    -2.50    42.50     0.00    82.50    V-points
        3    -1.50    43.50    -0.50    82.50    V-points
        4    -2.50    43.50    -0.50    82.50    V-points
        5    -2.50    42.50    -0.50    82.50    V-points
        6    -1.50    43.50    -0.50    81.00    V-points
        7    -2.50    43.50    -0.50    81.00    V-points
        8    -2.50    42.50    -0.50    81.00    V-points

 Lateral Boundary Conditions: NLM
 ============================

 Variable               Grid  West Edge    South Edge   East Edge    North Edge
 ---------              ----  ----------   ----------   ----------   ----------

 zeta                     1   Periodic     Closed       Periodic     Closed

 ubar                     1   Periodic     Closed       Periodic     Closed

 vbar                     1   Periodic     Closed       Periodic     Closed

 u                        1   Periodic     Closed       Periodic     Closed

 v                        1   Periodic     Closed       Periodic     Closed

 temp                     1   Periodic     Closed       Periodic     Closed

 salt                     1   Periodic     Closed       Periodic     Closed

 Activated C-preprocessing Options:

 UPWELLING           Wind-Driven Upwelling/Downwelling over a Periodic Channel
 ANA_BSFLUX          Analytical kinematic bottom salinity flux.
 ANA_BTFLUX          Analytical kinematic bottom temperature flux.
 ANA_GRID            Analytical grid set-up.
 ANA_INITIAL         Analytical initial conditions.
 ANA_SMFLUX          Analytical kinematic surface momentum flux.
 ANA_SSFLUX          Analytical kinematic surface salinity flux.
 ANA_STFLUX          Analytical kinematic surface temperature flux.
 ANA_VMIX            Analytical vertical mixing coefficients.
 ASSUMED_SHAPE       Using assumed-shape arrays.
 AVERAGES            Writing out time-averaged nonlinear model fields.
 DIAGNOSTICS_TS      Computing and writing tracer diagnostic terms.
 DIAGNOSTICS_UV      Computing and writing momentum diagnostic terms.
 DJ_GRADPS           Parabolic Splines density Jacobian (Shchepetkin, 2002).
 DOUBLE_PRECISION    Double precision arithmetic.
 NONLINEAR           Nonlinear Model.
 !NONLIN_EOS         Linear Equation of State for seawater.
 POWER_LAW           Power-law shape time-averaging barotropic filter.
 PROFILE             Time profiling activated .
 !RST_SINGLE         Double precision fields in restart NetCDF file.
 SALINITY            Using salinity.
 SOLVE3D             Solving 3D Primitive Equations.
 SPLINES_VDIFF       Parabolic Spline Reconstruction for Vertical Diffusion.
 SPLINES_VVISC       Parabolic Spline Reconstruction for Vertical Viscosity.
 TS_C4HADVECTION     Fourth-order centered horizontal advection of tracers.
 TS_C4VADVECTION     Fourth-order centered vertical advection of tracers.
 UV_ADV              Advection of momentum.
 UV_COR              Coriolis term.
 UV_U3HADVECTION     Third-order upstream horizontal advection of 3D momentum.
 UV_C4VADVECTION     Fourth-order centered vertical advection of momentum.
 UV_LDRAG            Linear bottom stress.
 VAR_RHO_2D          Variable density barotropic mode.

 Process Information:

 Thread #  0 (pid=   26621) is active.

 INITIAL: Configuring and initializing forward nonlinear model ...
 *******

    ANA_GRID    - x-location of PSI-points: x_psi
                   (Grid = 01, Min =  0.00000000E+00 Max =  4.00000000E+04)
    ANA_GRID    - y-location of PSI-points: y_psi
                   (Grid = 01, Min =  0.00000000E+00 Max =  8.00000000E+04)
    ANA_GRID    - x-location of RHO-points: x_rho
                   (Grid = 01, Min =  5.00000000E+02 Max =  4.05000000E+04)
    ANA_GRID    - y-location of RHO-points: y_rho
                   (Grid = 01, Min = -5.00000000E+02 Max =  8.05000000E+04)
    ANA_GRID    - x-location of U-points: x_u
                   (Grid = 01, Min =  0.00000000E+00 Max =  4.00000000E+04)
    ANA_GRID    - y-location of U-points: y_u
                   (Grid = 01, Min = -5.00000000E+02 Max =  8.05000000E+04)
    ANA_GRID    - x-location of V-points: x_v
                   (Grid = 01, Min =  5.00000000E+02 Max =  4.05000000E+04)
    ANA_GRID    - y-location of V-points: y_v
                   (Grid = 01, Min =  0.00000000E+00 Max =  8.00000000E+04)
    ANA_GRID    - reciprocal XI-grid spacing: pm
                   (Grid = 01, Min =  1.00000000E-03 Max =  1.00000000E-03)
    ANA_GRID    - reciprocal ETA-grid spacing: pn
                   (Grid = 01, Min =  1.00000000E-03 Max =  1.00000000E-03)
    ANA_GRID    - angle between XI-axis and EAST: angler
                   (Grid = 01, Min =  0.00000000E+00 Max =  0.00000000E+00)
    ANA_GRID    - Coriolis parameter at RHO-points: f
                   (Grid = 01, Min = -8.26000000E-05 Max = -8.26000000E-05)
    ANA_GRID    - bathymetry at RHO-points: h
                   (Grid = 01, Min =  2.52004887E+01 Max =  1.50000000E+02)

 Vertical S-coordinate System, Grid 01:

 level   S-coord     Cs-curve   Z   at hmin       at hc    half way     at hmax

    16   0.0000000   0.0000000        0.000       0.000       0.000       0.000
    15  -0.0625000  -0.0019442       -0.809      -0.806      -1.348      -1.589
    14  -0.1250000  -0.0078455       -1.668      -1.661      -2.966      -3.687
    13  -0.1875000  -0.0179119       -2.580      -2.568      -4.867      -6.321
    12  -0.2500000  -0.0324983       -3.549      -3.531      -7.077      -9.535
    11  -0.3125000  -0.0521190       -4.581      -4.558      -9.630     -13.397
    10  -0.3750000  -0.0774659       -5.686      -5.656     -12.573     -17.996
     9  -0.4375000  -0.1094327       -6.875      -6.837     -15.967     -23.445
     8  -0.5000000  -0.1491465       -8.162      -8.114     -19.889     -29.890
     7  -0.5625000  -0.1980075       -9.564      -9.506     -24.435     -37.512
     6  -0.6250000  -0.2577387      -11.104     -11.034     -29.721     -46.531
     5  -0.6875000  -0.3304460      -12.808     -12.724     -35.892     -57.218
     4  -0.7500000  -0.4186931      -14.709     -14.609     -43.121     -69.903
     3  -0.8125000  -0.5255915      -16.846     -16.726     -51.622     -84.987
     2  -0.8750000  -0.6549105      -19.266     -19.124     -61.651    -102.953
     1  -0.9375000  -0.8112096      -22.028     -21.859     -73.518    -124.388
     0  -1.0000000  -1.0000000      -25.200     -25.000     -87.600    -150.000

 Time Splitting Weights for Grid 01:    ndtfast =  30    nfast =  42
 ==================================

    Primary            Secondary            Accumulated to Current Step

  1-0.0008094437383769 0.0333333333333333-0.0008094437383769 0.0333333333333333
  2-0.0014053566728197 0.0333603147912792-0.0022148004111966 0.0666936481246126
  3-0.0017877524645903 0.0334071600137066-0.0040025528757869 0.1001008081383191
  4-0.0019566842408176 0.0334667517625262-0.0059592371166046 0.1335675599008453
  5-0.0019122901320372 0.0335319745705535-0.0078715272486418 0.1670995344713988
  6-0.0016548570247459 0.0335957175749547-0.0095263842733877 0.2006952520463536
  7-0.0011849025289723 0.0336508794757796-0.0107112868023600 0.2343461315221331
  8-0.0005032751608631 0.0336903762267453-0.0112145619632232 0.2680365077488784
  9 0.0003887272597151 0.0337071520654408-0.0108258347035081 0.3017436598143192
 10 0.0014892209965583 0.0336941944901169-0.0093366137069498 0.3354378543044362
 11 0.0027955815694920 0.0336445537902317-0.0065410321374578 0.3690824080946679
 12 0.0043042707117221 0.0335513677379153-0.0022367614257357 0.4026337758325831
 13 0.0060106451121704 0.0334078920475245 0.0037738836864347 0.4360416678801076
 14 0.0079087469427945 0.0332075372104522 0.0116826306292293 0.4692492050905598
 15 0.0099910761708920 0.0329439123123590 0.0216737068001212 0.5021931174029188
 16 0.0122483446563884 0.0326108764399960 0.0339220514565096 0.5348039938429148
 17 0.0146692120341107 0.0322025982847830 0.0485912634906203 0.5670065921276978
 18 0.0172400033810439 0.0317136245503127 0.0658312668716642 0.5987202166780105
 19 0.0199444086685725 0.0311389577709445 0.0857756755402367 0.6298591744489550
 20 0.0227631639997064 0.0304741441486588 0.1085388395399431 0.6603333185976138
 21 0.0256737146312910 0.0297153720153352 0.1342125541712341 0.6900486906129490
 22 0.0286498597812016 0.0288595815276255 0.1628624139524357 0.7189082721405746
 23 0.0316613792205220 0.0279045862015855 0.1945237931729577 0.7468128583421600
 24 0.0346736416507075 0.0268492068942347 0.2291974348236651 0.7736620652363948
 25 0.0376471948657328 0.0256934188392112 0.2668446296893979 0.7993554840756060
 26 0.0405373376992232 0.0244385123436867 0.3073819673886211 0.8237939964192927
 27 0.0432936737565711 0.0230872677537126 0.3506756411451922 0.8468812641730054
 28 0.0458596469320356 0.0216441452951603 0.3965352880772278 0.8685254094681656
 29 0.0481720587108284 0.0201154903974257 0.4447073467880562 0.8886408998655914
 30 0.0501605672561820 0.0185097551070648 0.4948679140442381 0.9071506549726561
 31 0.0517471682814030 0.0168377361985254 0.5466150823256412 0.9239883911711815
 32 0.0528456577069106 0.0151128305891453 0.5994607400325517 0.9391012217603267
 33 0.0533610761022577 0.0133513086655816 0.6528218161348094 0.9524525304259084
 34 0.0531891349131379 0.0115726061288397 0.7060109510479473 0.9640251365547481
 35 0.0522156244733761 0.0097996349650684 0.7582265755213234 0.9738247715198165
 36 0.0503158038019031 0.0080591141492892 0.8085423793232265 0.9818838856691057
 37 0.0473537721847153 0.0063819206892258 0.8558961515079418 0.9882658063583315
 38 0.0431818225418188 0.0048034616164019 0.8990779740497606 0.9930692679747335
 39 0.0376397765791564 0.0033640675316746 0.9367177506289170 0.9964333355064081
 40 0.0305543017255206 0.0021094083123694 0.9672720523544377 0.9985427438187775
 41 0.0217382098544505 0.0010909315881854 0.9890102622088881 0.9996336754069629
 42 0.0109897377911119 0.0003663245930371 1.0000000000000000 1.0000000000000000

 ndtfast, nfast =   30  42   nfast/ndtfast =  1.40000

 Centers of gravity and integrals (values must be 1, 1, approx 1/2, 1, 1):

    1.000000000000 1.047601458608 0.523800729304 1.000000000000 1.000000000000

 Power filter parameters, Fgamma, gamma =  0.28400   0.18933

 Metrics information for Grid 01:
 ===============================

 Minimum X-grid spacing, DXmin =  1.00000000E+00 km
 Maximum X-grid spacing, DXmax =  1.00000000E+00 km
 Minimum Y-grid spacing, DYmin =  1.00000000E+00 km
 Maximum Y-grid spacing, DYmax =  1.00000000E+00 km
 Minimum Z-grid spacing, DZmin =  8.08965824E-01 m
 Maximum Z-grid spacing, DZmax =  2.56123321E+01 m

 Minimum barotropic Courant Number =  2.22358627E-01
 Maximum barotropic Courant Number =  5.42494240E-01
 Maximum Coriolis   Courant Number =  2.47800000E-02

    ANA_INITIAL - vertically integrated u-momentum component: ubar
                   (Grid = 01, Min =  0.00000000E+00 Max =  0.00000000E+00)
    ANA_INITIAL - vertically integrated v-momentum component: vbar
                   (Grid = 01, Min =  0.00000000E+00 Max =  0.00000000E+00)
    ANA_INITIAL - free-surface: zeta
                   (Grid = 01, Min =  0.00000000E+00 Max =  0.00000000E+00)
    ANA_INITIAL - u-momentum component: u
                   (Grid = 01, Min =  0.00000000E+00 Max =  0.00000000E+00)
    ANA_INITIAL - v-momentum component: v
                   (Grid = 01, Min =  0.00000000E+00 Max =  0.00000000E+00)
    ANA_INITIAL - potential temperature: temp
                   (Grid = 01, Min =  1.45204834E+01 Max =  2.19365219E+01)
    ANA_INITIAL - salinity: salt
                   (Grid = 01, Min =  3.50000000E+01 Max =  3.50000000E+01)

 Basin information for Grid 01:

 Maximum grid stiffness ratios:  rx0 =   6.931666E-02 (Beckmann and Haidvogel)
                                 rx1 =   8.661243E-01 (Haney)

 Initial domain volumes:  TotVolume =  3.8843755884E+11 m3
                         MinCellVol =  8.4521383562E+05 m3
                         MaxCellVol =  2.5612332106E+07 m3
                            Max/Min =  3.0302783777E+01

 NL ROMS/TOMS: started time-stepping: (Grid: 01 TimeSteps: 000000000001 - 000000000288)


 TIME-STEP YYYY-MM-DD hh:mm:ss.ss  KINETIC_ENRG   POTEN_ENRG    TOTAL_ENRG    NET_VOLUME
                     C => (i,j,k)       Cu            Cv            Cw         Max Speed

         0 0001-01-01 00:00:00.00  0.000000E+00  6.585677E+02  6.585677E+02  3.884376E+11
                       (00,00,00)  0.000000E+00  0.000000E+00  0.000000E+00  0.000000E+00
      DEF_HIS     - creating  history      file, Grid 01: ocean_his.nc
      WRT_HIS     - wrote history     fields (Index=1,1) in record = 0000001
      DEF_AVG     - creating  average      file, Grid 01: ocean_avg.nc
      DEF_DIAGS   - creating  diagnostics  file, Grid 01: ocean_dia.nc
      DEF_RST   - creating restart file: ocean_rst.nc
         1 0001-01-01 00:05:00.00  6.479416E-13  6.585677E+02  6.585677E+02  3.884376E+11
                       (01,01,01)  1.068554E-09  1.950202E-06  0.000000E+00  9.216771E-06
         2 0001-01-01 00:10:00.00  9.295277E-12  6.585677E+02  6.585677E+02  3.884376E+11
                       (04,02,08)  6.735610E-08  1.787149E-06  1.433645E-05  3.660939E-05
         3 0001-01-01 00:15:00.00  5.920943E-11  6.585677E+02  6.585677E+02  3.884376E+11
                       (01,79,16)  2.683550E-05  3.882868E-06  5.451348E-06  9.272916E-05
         4 0001-01-01 00:20:00.00  2.033066E-10  6.585677E+02  6.585677E+02  3.884376E+11
                       (01,79,16)  4.853335E-05  5.482029E-06  4.091201E-06  1.661356E-04
         5 0001-01-01 00:25:00.00  5.085713E-10  6.585677E+02  6.585677E+02  3.884376E+11
                       (09,80,16)  7.514852E-05  6.623138E-06  5.239130E-06  2.539161E-04
         6 0001-01-01 00:30:00.00  1.053387E-09  6.585677E+02  6.585677E+02  3.884376E+11
                       (08,79,16)  1.041236E-04  9.464400E-06  6.338118E-06  3.542889E-04
         7 0001-01-01 00:35:00.00  1.926158E-09  6.585677E+02  6.585677E+02  3.884376E+11
                       (35,80,16)  1.382472E-04  9.856816E-06  8.190944E-06  4.660306E-04
         8 0001-01-01 00:40:00.00  3.224265E-09  6.585677E+02  6.585677E+02  3.884376E+11
                       (07,80,16)  1.745730E-04  1.170450E-05  1.004880E-05  5.882209E-04
         9 0001-01-01 00:45:00.00  5.053131E-09  6.585677E+02  6.585677E+02  3.884376E+11
                       (18,79,16)  2.121526E-04  1.784121E-05  1.148498E-05  7.200998E-04
        10 0001-01-01 00:50:00.00  7.525525E-09  6.585677E+02  6.585677E+02  3.884376E+11
                       (06,79,16)  2.537580E-04  2.129867E-05  1.349734E-05  8.610748E-04
        11 0001-01-01 00:55:00.00  1.076115E-08  6.585677E+02  6.585677E+02  3.884376E+11
                       (01,79,16)  2.978815E-04  2.501142E-05  1.548333E-05  1.010635E-03
        12 0001-01-01 01:00:00.00  1.488621E-08  6.585677E+02  6.585677E+02  3.884376E+11
                       (06,79,16)  3.443949E-04  2.903575E-05  1.535067E-05  1.168351E-03
        13 0001-01-01 01:05:00.00  2.003292E-08  6.585677E+02  6.585677E+02  3.884376E+11
                       (08,79,16)  3.931829E-04  3.351425E-05  1.406730E-05  1.333851E-03
        14 0001-01-01 01:10:00.00  2.633906E-08  6.585677E+02  6.585677E+02  3.884376E+11
                       (18,79,16)  4.441433E-04  3.839012E-05  1.449219E-05  1.506803E-03
        15 0001-01-01 01:15:00.00  3.394776E-08  6.585677E+02  6.585677E+02  3.884376E+11
                       (34,79,16)  4.971866E-04  4.362604E-05  1.535401E-05  1.686915E-03
        16 0001-01-01 01:20:00.00  4.300722E-08  6.585677E+02  6.585677E+02  3.884376E+11
                       (25,79,16)  5.522317E-04  4.929387E-05  1.576488E-05  1.873920E-03
        17 0001-01-01 01:25:00.00  5.367025E-08  6.585677E+02  6.585677E+02  3.884376E+11
                       (31,79,16)  6.092039E-04  5.535676E-05  1.709322E-05  2.067584E-03
        18 0001-01-01 01:30:00.00  6.609404E-08  6.585677E+02  6.585677E+02  3.884376E+11
                       (25,79,16)  6.680374E-04  6.175663E-05  1.848632E-05  2.267688E-03
        19 0001-01-01 01:35:00.00  8.043993E-08  6.585677E+02  6.585677E+02  3.884376E+11
                       (17,79,16)  7.286713E-04  6.851740E-05  1.868935E-05  2.474032E-03
        20 0001-01-01 01:40:00.00  9.687323E-08  6.585677E+02  6.585677E+02  3.884376E+11
                       (40,79,16)  7.910497E-04  7.562910E-05  1.807808E-05  2.686434E-03
        21 0001-01-01 01:45:00.00  1.155628E-07  6.585677E+02  6.585677E+02  3.884376E+11
                       (33,79,16)  8.551201E-04  8.316920E-05  1.657284E-05  2.904721E-03
        22 0001-01-01 01:50:00.00  1.366812E-07  6.585677E+02  6.585677E+02  3.884376E+11
                       (03,79,16)  9.208315E-04  9.116607E-05  1.584204E-05  3.128735E-03
        23 0001-01-01 01:55:00.00  1.604038E-07  6.585677E+02  6.585677E+02  3.884376E+11
                       (03,79,16)  9.881372E-04  9.955143E-05  1.651790E-05  3.358332E-03
        24 0001-01-01 02:00:00.00  1.869098E-07  6.585677E+02  6.585677E+02  3.884376E+11
                       (18,79,16)  1.056995E-03  1.083095E-04  1.720377E-05  3.593376E-03
        25 0001-01-01 02:05:00.00  2.163806E-07  6.585677E+02  6.585677E+02  3.884376E+11
                       (17,79,16)  1.127363E-03  1.174507E-04  1.757633E-05  3.833738E-03
        26 0001-01-01 02:10:00.00  2.490010E-07  6.585677E+02  6.585677E+02  3.884376E+11
                       (29,79,16)  1.199205E-03  1.269353E-04  1.787288E-05  4.079300E-03
        27 0001-01-01 02:15:00.00  2.849578E-07  6.585677E+02  6.585677E+02  3.884376E+11
                       (16,79,16)  1.272484E-03  1.367506E-04  1.734213E-05  4.329947E-03
        28 0001-01-01 02:20:00.00  3.244407E-07  6.585677E+02  6.585677E+02  3.884376E+11
                       (35,79,16)  1.347169E-03  1.469100E-04  1.578183E-05  4.585570E-03
        29 0001-01-01 02:25:00.00  3.676413E-07  6.585677E+02  6.585677E+02  3.884376E+11
                       (35,79,16)  1.423227E-03  1.574449E-04  1.359995E-05  4.846067E-03
        30 0001-01-01 02:30:00.00  4.147530E-07  6.585677E+02  6.585677E+02  3.884376E+11
                       (37,79,16)  1.500626E-03  1.683957E-04  1.163974E-05  5.111338E-03
        31 0001-01-01 02:35:00.00  4.659713E-07  6.585677E+02  6.585677E+02  3.884376E+11
                       (37,79,16)  1.579336E-03  1.797318E-04  1.088252E-05  5.381296E-03
        32 0001-01-01 02:40:00.00  5.214930E-07  6.585677E+02  6.585677E+02  3.884376E+11
                       (22,79,16)  1.659329E-03  1.913959E-04  1.078726E-05  5.655860E-03
        33 0001-01-01 02:45:00.00  5.815163E-07  6.585677E+02  6.585677E+02  3.884376E+11
                       (19,80,15)  1.596766E-03  9.812936E-05  2.617034E-04  5.934948E-03
        34 0001-01-01 02:50:00.00  6.462407E-07  6.585677E+02  6.585677E+02  3.884376E+11
                       (10,80,15)  1.675587E-03  1.032747E-04  2.758607E-04  6.218482E-03
        35 0001-01-01 02:55:00.00  7.158668E-07  6.585677E+02  6.585677E+02  3.884376E+11
                       (09,80,15)  1.755709E-03  1.085264E-04  2.907026E-04  6.506387E-03
        36 0001-01-01 03:00:00.00  7.905962E-07  6.585677E+02  6.585677E+02  3.884376E+11
                       (36,80,15)  1.837113E-03  1.138870E-04  3.063095E-04  6.798592E-03
        37 0001-01-01 03:05:00.00  8.706313E-07  6.585677E+02  6.585677E+02  3.884376E+11
                       (09,80,15)  1.919776E-03  1.193617E-04  3.223529E-04  7.095026E-03
        38 0001-01-01 03:10:00.00  9.561756E-07  6.585677E+02  6.585677E+02  3.884376E+11
                       (09,80,15)  2.003681E-03  1.249556E-04  3.383430E-04  7.395625E-03
        39 0001-01-01 03:15:00.00  1.047433E-06  6.585677E+02  6.585677E+02  3.884376E+11
                       (09,80,15)  2.088808E-03  1.306635E-04  3.537939E-04  7.700327E-03
        40 0001-01-01 03:20:00.00  1.144608E-06  6.585677E+02  6.585677E+02  3.884376E+11
                       (09,80,15)  2.175139E-03  1.364660E-04  3.688469E-04  8.009082E-03
        41 0001-01-01 03:25:00.00  1.247907E-06  6.585677E+02  6.585677E+02  3.884376E+11
                       (09,80,15)  2.262658E-03  1.423509E-04  3.844950E-04  8.321837E-03
        42 0001-01-01 03:30:00.00  1.357534E-06  6.585677E+02  6.585677E+02  3.884376E+11
                       (09,80,15)  2.351348E-03  1.483197E-04  4.013046E-04  8.638537E-03
        43 0001-01-01 03:35:00.00  1.473694E-06  6.585677E+02  6.585677E+02  3.884376E+11
                       (09,80,15)  2.441194E-03  1.543753E-04  4.189861E-04  8.959129E-03
        44 0001-01-01 03:40:00.00  1.596594E-06  6.585677E+02  6.585677E+02  3.884376E+11
                       (09,80,15)  2.532180E-03  1.605191E-04  4.371735E-04  9.283564E-03
        45 0001-01-01 03:45:00.00  1.726438E-06  6.585677E+02  6.585677E+02  3.884376E+11
                       (03,80,15)  2.624292E-03  1.667538E-04  4.555806E-04  9.611796E-03
        46 0001-01-01 03:50:00.00  1.863430E-06  6.585677E+02  6.585677E+02  3.884376E+11
                       (39,80,15)  2.717515E-03  1.730810E-04  4.738614E-04  9.943779E-03
        47 0001-01-01 03:55:00.00  2.007774E-06  6.585677E+02  6.585677E+02  3.884376E+11
                       (09,80,14)  2.523280E-03  1.710301E-04  7.893071E-04  1.027947E-02
        48 0001-01-01 04:00:00.00  2.159673E-06  6.585677E+02  6.585677E+02  3.884376E+11
                       (39,80,14)  2.611931E-03  1.772644E-04  8.178887E-04  1.061884E-02
        49 0001-01-01 04:05:00.00  2.319330E-06  6.585677E+02  6.585677E+02  3.884376E+11
                       (13,80,14)  2.701650E-03  1.835590E-04  8.468120E-04  1.096186E-02
        50 0001-01-01 04:10:00.00  2.486945E-06  6.585677E+02  6.585677E+02  3.884376E+11
                       (09,80,14)  2.792426E-03  1.899114E-04  8.766999E-04  1.130847E-02
        51 0001-01-01 04:15:00.00  2.662719E-06  6.585677E+02  6.585677E+02  3.884376E+11
                       (09,80,14)  2.884248E-03  1.963277E-04  9.075097E-04  1.165865E-02
        52 0001-01-01 04:20:00.00  2.846852E-06  6.585677E+02  6.585677E+02  3.884376E+11
                       (09,80,14)  2.977104E-03  2.028117E-04  9.387334E-04  1.201235E-02
        53 0001-01-01 04:25:00.00  3.039542E-06  6.585677E+02  6.585677E+02  3.884376E+11
                       (30,80,14)  3.070982E-03  2.093629E-04  9.699837E-04  1.236956E-02
        54 0001-01-01 04:30:00.00  3.240987E-06  6.585677E+02  6.585677E+02  3.884376E+11
                       (09,80,14)  3.165874E-03  2.159778E-04  1.001119E-03  1.273022E-02
        55 0001-01-01 04:35:00.00  3.451384E-06  6.585677E+02  6.585677E+02  3.884376E+11
                       (30,80,14)  3.261767E-03  2.226506E-04  1.032164E-03  1.309433E-02
        56 0001-01-01 04:40:00.00  3.670928E-06  6.585677E+02  6.585677E+02  3.884376E+11
                       (30,80,14)  3.358653E-03  2.293720E-04  1.063280E-03  1.346185E-02
        57 0001-01-01 04:45:00.00  3.899814E-06  6.585677E+02  6.585677E+02  3.884376E+11
                       (14,01,14)  3.479979E-03  2.322586E-04  1.075663E-03  1.383276E-02
        58 0001-01-01 04:50:00.00  4.138232E-06  6.585677E+02  6.585677E+02  3.884376E+11
                       (14,01,14)  3.579443E-03  2.398289E-04  1.111756E-03  1.420703E-02
        59 0001-01-01 04:55:00.00  4.386373E-06  6.585677E+02  6.585677E+02  3.884376E+11
                       (14,01,14)  3.679909E-03  2.474134E-04  1.147334E-03  1.458463E-02
        60 0001-01-01 05:00:00.00  4.644426E-06  6.585677E+02  6.585677E+02  3.884376E+11
                       (16,01,13)  3.412417E-03  2.368341E-04  1.572422E-03  1.496555E-02
        61 0001-01-01 05:05:00.00  4.912575E-06  6.585677E+02  6.585677E+02  3.884376E+11
                       (40,01,13)  3.508000E-03  2.439897E-04  1.620337E-03  1.534975E-02
        62 0001-01-01 05:10:00.00  5.191005E-06  6.585677E+02  6.585677E+02  3.884376E+11
                       (16,01,13)  3.604564E-03  2.511435E-04  1.668699E-03  1.573721E-02
        63 0001-01-01 05:15:00.00  5.479897E-06  6.585677E+02  6.585677E+02  3.884376E+11
                       (16,01,13)  3.702105E-03  2.582983E-04  1.717331E-03  1.612792E-02
        64 0001-01-01 05:20:00.00  5.779429E-06  6.585677E+02  6.585677E+02  3.884376E+11
                       (16,01,13)  3.800617E-03  2.654565E-04  1.765966E-03  1.652186E-02
        65 0001-01-01 05:25:00.00  6.089779E-06  6.585677E+02  6.585677E+02  3.884376E+11
                       (40,01,13)  3.900095E-03  2.726201E-04  1.814351E-03  1.691900E-02
        66 0001-01-01 05:30:00.00  6.411122E-06  6.585677E+02  6.585677E+02  3.884376E+11
                       (16,01,13)  4.000534E-03  2.797869E-04  1.862287E-03  1.731934E-02
        67 0001-01-01 05:35:00.00  6.743630E-06  6.585677E+02  6.585677E+02  3.884376E+11
                       (16,01,13)  4.101928E-03  2.869488E-04  1.909774E-03  1.772284E-02
        68 0001-01-01 05:40:00.00  7.087475E-06  6.585677E+02  6.585677E+02  3.884376E+11
                       (32,01,13)  4.204272E-03  2.940956E-04  1.957138E-03  1.812948E-02
        69 0001-01-01 05:45:00.00  7.442825E-06  6.585677E+02  6.585677E+02  3.884376E+11
                       (16,01,13)  4.307563E-03  3.012229E-04  2.004805E-03  1.853926E-02
        70 0001-01-01 05:50:00.00  7.809848E-06  6.585677E+02  6.585677E+02  3.884376E+11
                       (16,01,13)  4.411796E-03  3.083334E-04  2.052928E-03  1.895215E-02
        71 0001-01-01 05:55:00.00  8.188706E-06  6.585677E+02  6.585677E+02  3.884376E+11
                       (32,01,13)  4.516966E-03  3.154328E-04  2.101304E-03  1.936814E-02
        72 0001-01-01 06:00:00.00  8.579561E-06  6.585677E+02  6.585677E+02  3.884376E+11
                       (24,01,13)  4.623069E-03  3.225251E-04  2.149605E-03  1.978721E-02
      WRT_HIS     - wrote history     fields (Index=1,1) in record = 0000002
      WRT_AVG     - wrote averaged    fields             in record = 0000001
      WRT_DIAGS   - wrote diagnostics fields             in record = 0000001
      WRT_RST     - wrote re-start    fields (Index=1,1) in record = 0000001
        73 0001-01-01 06:05:00.00  8.982572E-06  6.585677E+02  6.585677E+02  3.884376E+11
                       (07,01,13)  4.730101E-03  3.296116E-04  2.197589E-03  2.020936E-02
        74 0001-01-01 06:10:00.00  9.397894E-06  6.585677E+02  6.585677E+02  3.884376E+11
                       (32,01,13)  4.838057E-03  3.366914E-04  2.245153E-03  2.063456E-02
        75 0001-01-01 06:15:00.00  9.825678E-06  6.585677E+02  6.585677E+02  3.884376E+11
                       (35,01,13)  4.946933E-03  3.437597E-04  2.292330E-03  2.106280E-02
        76 0001-01-01 06:20:00.00  1.026607E-05  6.585677E+02  6.585677E+02  3.884376E+11
                       (35,01,13)  5.056725E-03  3.508103E-04  2.339328E-03  2.149406E-02
        77 0001-01-01 06:25:00.00  1.071922E-05  6.585677E+02  6.585677E+02  3.884376E+11
                       (35,01,13)  5.167429E-03  3.578398E-04  2.386457E-03  2.192833E-02
        78 0001-01-01 06:30:00.00  1.118527E-05  6.585677E+02  6.585677E+02  3.884376E+11
                       (35,01,13)  5.279041E-03  3.648516E-04  2.433867E-03  2.236559E-02
        79 0001-01-01 06:35:00.00  1.166436E-05  6.585677E+02  6.585677E+02  3.884376E+11
                       (35,01,13)  5.391557E-03  3.718524E-04  2.481395E-03  2.280583E-02
        80 0001-01-01 06:40:00.00  1.215663E-05  6.585677E+02  6.585677E+02  3.884376E+11
                       (35,01,13)  5.504975E-03  3.788467E-04  2.528710E-03  2.324905E-02
        81 0001-01-01 06:45:00.00  1.266220E-05  6.585677E+02  6.585677E+02  3.884376E+11
                       (35,01,13)  5.619288E-03  3.858345E-04  2.575594E-03  2.369522E-02
        82 0001-01-01 06:50:00.00  1.318122E-05  6.585677E+02  6.585677E+02  3.884376E+11
                       (35,01,13)  5.734494E-03  3.928124E-04  2.622061E-03  2.414434E-02
        83 0001-01-01 06:55:00.00  1.371381E-05  6.585677E+02  6.585677E+02  3.884376E+11
                       (15,01,13)  5.850589E-03  3.997759E-04  2.668298E-03  2.459638E-02
        84 0001-01-01 07:00:00.00  1.426009E-05  6.585677E+02  6.585677E+02  3.884376E+11
                       (35,01,12)  5.440163E-03  3.693119E-04  3.280440E-03  2.505133E-02
        85 0001-01-01 07:05:00.00  1.482020E-05  6.585677E+02  6.585677E+02  3.884376E+11
                       (35,01,12)  5.551009E-03  3.756996E-04  3.336897E-03  2.550919E-02
        86 0001-01-01 07:10:00.00  1.539426E-05  6.585677E+02  6.585677E+02  3.884376E+11
                       (35,01,12)  5.662733E-03  3.820735E-04  3.393618E-03  2.596993E-02
        87 0001-01-01 07:15:00.00  1.598238E-05  6.585677E+02  6.585677E+02  3.884376E+11
                       (35,01,12)  5.775331E-03  3.884406E-04  3.450449E-03  2.643355E-02
        88 0001-01-01 07:20:00.00  1.658467E-05  6.585677E+02  6.585677E+02  3.884376E+11
                       (15,01,12)  5.888801E-03  3.948064E-04  3.507098E-03  2.690004E-02
        89 0001-01-01 07:25:00.00  1.720125E-05  6.585677E+02  6.585677E+02  3.884376E+11
                       (35,01,12)  6.003137E-03  4.011711E-04  3.563353E-03  2.736939E-02
        90 0001-01-01 07:30:00.00  1.783222E-05  6.585677E+02  6.585677E+02  3.884376E+11
                       (35,01,12)  6.118338E-03  4.075317E-04  3.619220E-03  2.784159E-02
        91 0001-01-01 07:35:00.00  1.847769E-05  6.585677E+02  6.585677E+02  3.884376E+11
                       (35,01,12)  6.234398E-03  4.138841E-04  3.674877E-03  2.831661E-02
        92 0001-01-01 07:40:00.00  1.913776E-05  6.585677E+02  6.585677E+02  3.884376E+11
                       (01,01,12)  6.351316E-03  4.202258E-04  3.730527E-03  2.879444E-02
        93 0001-01-01 07:45:00.00  1.981252E-05  6.585677E+02  6.585677E+02  3.884376E+11
                       (25,01,12)  6.469088E-03  4.265570E-04  3.786307E-03  2.927508E-02
        94 0001-01-01 07:50:00.00  2.050207E-05  6.585677E+02  6.585677E+02  3.884376E+11
                       (37,01,12)  6.587710E-03  4.328808E-04  3.842240E-03  2.975851E-02
        95 0001-01-01 07:55:00.00  2.120651E-05  6.585677E+02  6.585677E+02  3.884376E+11
                       (25,01,12)  6.707180E-03  4.392022E-04  3.898212E-03  3.024473E-02
        96 0001-01-01 08:00:00.00  2.192591E-05  6.585677E+02  6.585677E+02  3.884376E+11
                       (37,01,12)  6.827494E-03  4.455251E-04  3.954024E-03  3.073372E-02
        97 0001-01-01 08:05:00.00  2.266038E-05  6.585677E+02  6.585677E+02  3.884376E+11
                       (11,01,12)  6.948648E-03  4.518492E-04  4.009530E-03  3.122547E-02
        98 0001-01-01 08:10:00.00  2.340999E-05  6.585677E+02  6.585677E+02  3.884376E+11
                       (37,01,12)  7.070639E-03  4.581703E-04  4.064770E-03  3.171997E-02
        99 0001-01-01 08:15:00.00  2.417483E-05  6.585677E+02  6.585677E+02  3.884376E+11
                       (37,01,12)  7.193465E-03  4.644841E-04  4.119954E-03  3.221720E-02
       100 0001-01-01 08:20:00.00  2.495499E-05  6.585677E+02  6.585677E+02  3.884376E+11
                       (41,01,12)  7.317122E-03  4.707889E-04  4.175302E-03  3.271716E-02
       101 0001-01-01 08:25:00.00  2.575053E-05  6.585677E+02  6.585677E+02  3.884376E+11
                       (41,01,12)  7.441607E-03  4.770866E-04  4.230905E-03  3.321982E-02
       102 0001-01-01 08:30:00.00  2.656153E-05  6.585677E+02  6.585677E+02  3.884376E+11
                       (11,01,12)  7.566917E-03  4.833815E-04  4.286698E-03  3.372519E-02
       103 0001-01-01 08:35:00.00  2.738807E-05  6.585677E+02  6.585677E+02  3.884376E+11
                       (41,01,12)  7.693048E-03  4.896787E-04  4.342503E-03  3.423326E-02
       104 0001-01-01 08:40:00.00  2.823021E-05  6.585677E+02  6.585677E+02  3.884376E+11
                       (41,01,12)  7.819999E-03  4.959813E-04  4.398118E-03  3.474400E-02
       105 0001-01-01 08:45:00.00  2.908802E-05  6.585677E+02  6.585677E+02  3.884376E+11
                       (37,01,12)  7.947764E-03  5.022886E-04  4.453419E-03  3.525742E-02
       106 0001-01-01 08:50:00.00  2.996155E-05  6.585677E+02  6.585677E+02  3.884376E+11
                       (41,01,12)  8.076342E-03  5.085968E-04  4.508448E-03  3.577349E-02
       107 0001-01-01 08:55:00.00  3.085087E-05  6.585677E+02  6.585677E+02  3.884376E+11
                       (37,01,12)  8.205728E-03  5.149014E-04  4.563395E-03  3.629221E-02
       108 0001-01-01 09:00:00.00  3.175604E-05  6.585677E+02  6.585677E+02  3.884376E+11
                       (41,01,12)  8.335921E-03  5.212009E-04  4.618465E-03  3.681356E-02
       109 0001-01-01 09:05:00.00  3.267711E-05  6.585677E+02  6.585677E+02  3.884376E+11
                       (37,01,12)  8.466917E-03  5.274967E-04  4.673745E-03  3.733753E-02
       110 0001-01-01 09:10:00.00  3.361413E-05  6.585677E+02  6.585677E+02  3.884376E+11
                       (41,01,12)  8.598713E-03  5.337924E-04  4.729166E-03  3.786412E-02
       111 0001-01-01 09:15:00.00  3.456716E-05  6.585677E+02  6.585677E+02  3.884376E+11
                       (41,01,12)  8.731307E-03  5.400911E-04  4.784581E-03  3.839332E-02
       112 0001-01-01 09:20:00.00  3.553626E-05  6.585677E+02  6.585677E+02  3.884376E+11
                       (41,01,12)  8.864694E-03  5.463939E-04  4.839857E-03  3.892510E-02
       113 0001-01-01 09:25:00.00  3.652146E-05  6.585677E+02  6.585677E+02  3.884376E+11
                       (08,01,12)  8.998873E-03  5.526995E-04  4.894942E-03  3.945947E-02
       114 0001-01-01 09:30:00.00  3.752283E-05  6.585677E+02  6.585677E+02  3.884376E+11
                       (08,01,12)  9.133839E-03  5.590044E-04  4.949904E-03  3.999641E-02
       115 0001-01-01 09:35:00.00  3.854041E-05  6.585677E+02  6.585677E+02  3.884376E+11
                       (36,01,12)  9.269591E-03  5.653050E-04  5.004902E-03  4.053591E-02
       116 0001-01-01 09:40:00.00  3.957425E-05  6.585677E+02  6.585677E+02  3.884376E+11
                       (08,01,12)  9.406125E-03  5.716006E-04  5.060088E-03  4.107796E-02
       117 0001-01-01 09:45:00.00  4.062438E-05  6.585677E+02  6.585677E+02  3.884376E+11
                       (08,01,12)  9.543439E-03  5.778936E-04  5.115497E-03  4.162254E-02
       118 0001-01-01 09:50:00.00  4.169084E-05  6.585677E+02  6.585677E+02  3.884376E+11
                       (08,01,12)  9.681529E-03  5.841883E-04  5.171010E-03  4.216966E-02
       119 0001-01-01 09:55:00.00  4.277368E-05  6.585677E+02  6.585677E+02  3.884376E+11
                       (18,01,12)  9.820394E-03  5.904879E-04  5.226435E-03  4.271929E-02
       120 0001-01-01 10:00:00.00  4.387292E-05  6.585677E+02  6.585677E+02  3.884376E+11
                       (18,01,12)  9.960029E-03  5.967928E-04  5.281625E-03  4.327144E-02
       121 0001-01-01 10:05:00.00  4.498861E-05  6.585677E+02  6.585677E+02  3.884376E+11
                       (18,01,12)  1.010043E-02  6.031005E-04  5.336555E-03  4.382608E-02
       122 0001-01-01 10:10:00.00  4.612078E-05  6.585677E+02  6.585677E+02  3.884376E+11
                       (18,01,12)  1.024160E-02  6.094073E-04  5.391325E-03  4.438321E-02
       123 0001-01-01 10:15:00.00  4.726945E-05  6.585677E+02  6.585677E+02  3.884376E+11
                       (18,01,12)  1.038353E-02  6.157096E-04  5.446102E-03  4.494282E-02
       124 0001-01-01 10:20:00.00  4.843467E-05  6.585677E+02  6.585677E+02  3.884376E+11
                       (18,01,12)  1.052622E-02  6.220064E-04  5.501032E-03  4.550489E-02
       125 0001-01-01 10:25:00.00  4.961647E-05  6.585677E+02  6.585677E+02  3.884376E+11
                       (18,01,12)  1.066967E-02  6.282994E-04  5.556150E-03  4.606942E-02
       126 0001-01-01 10:30:00.00  5.081488E-05  6.585677E+02  6.585677E+02  3.884376E+11
                       (36,01,12)  1.081387E-02  6.345918E-04  5.611363E-03  4.663640E-02
       127 0001-01-01 10:35:00.00  5.202993E-05  6.585677E+02  6.585677E+02  3.884376E+11
                       (18,01,12)  1.095882E-02  6.408858E-04  5.666518E-03  4.720581E-02
       128 0001-01-01 10:40:00.00  5.326166E-05  6.585677E+02  6.585678E+02  3.884376E+11
                       (18,01,12)  1.110452E-02  6.471811E-04  5.721505E-03  4.777765E-02
       129 0001-01-01 10:45:00.00  5.451010E-05  6.585677E+02  6.585678E+02  3.884376E+11
                       (36,01,12)  1.125096E-02  6.534751E-04  5.776329E-03  4.835191E-02
       130 0001-01-01 10:50:00.00  5.577528E-05  6.585677E+02  6.585678E+02  3.884376E+11
                       (36,01,12)  1.139815E-02  6.597648E-04  5.831088E-03  4.892857E-02
       131 0001-01-01 10:55:00.00  5.705724E-05  6.585677E+02  6.585678E+02  3.884376E+11
                       (36,01,12)  1.154608E-02  6.660483E-04  5.885905E-03  4.950763E-02
       132 0001-01-01 11:00:00.00  5.835600E-05  6.585677E+02  6.585678E+02  3.884376E+11
                       (36,01,12)  1.169475E-02  6.723257E-04  5.940851E-03  5.008908E-02
       133 0001-01-01 11:05:00.00  5.967159E-05  6.585677E+02  6.585678E+02  3.884376E+11
                       (30,01,12)  1.184415E-02  6.785995E-04  5.995901E-03  5.067290E-02
       134 0001-01-01 11:10:00.00  6.100404E-05  6.585677E+02  6.585678E+02  3.884376E+11
                       (03,01,12)  1.199428E-02  6.848727E-04  6.050933E-03  5.125910E-02
       135 0001-01-01 11:15:00.00  6.235338E-05  6.585677E+02  6.585678E+02  3.884376E+11
                       (30,01,12)  1.214515E-02  6.911469E-04  6.105796E-03  5.184765E-02
       136 0001-01-01 11:20:00.00  6.371964E-05  6.585677E+02  6.585678E+02  3.884376E+11
                       (03,01,12)  1.229674E-02  6.974212E-04  6.160400E-03  5.243855E-02
       137 0001-01-01 11:25:00.00  6.510283E-05  6.585677E+02  6.585678E+02  3.884376E+11
                       (03,01,12)  1.244905E-02  7.036922E-04  6.214778E-03  5.303179E-02
       138 0001-01-01 11:30:00.00  6.650301E-05  6.585677E+02  6.585678E+02  3.884376E+11
                       (07,01,12)  1.260209E-02  7.099564E-04  6.269060E-03  5.362736E-02
       139 0001-01-01 11:35:00.00  6.792019E-05  6.585677E+02  6.585678E+02  3.884376E+11
                       (03,01,12)  1.275584E-02  7.162113E-04  6.323397E-03  5.422525E-02
       140 0001-01-01 11:40:00.00  6.935442E-05  6.585677E+02  6.585678E+02  3.884376E+11
                       (07,01,12)  1.291031E-02  7.224574E-04  6.377870E-03  5.482545E-02
       141 0001-01-01 11:45:00.00  7.080572E-05  6.585677E+02  6.585678E+02  3.884376E+11
                       (07,01,12)  1.306550E-02  7.286964E-04  6.432454E-03  5.542794E-02
       142 0001-01-01 11:50:00.00  7.227415E-05  6.585677E+02  6.585678E+02  3.884376E+11
                       (17,01,12)  1.322139E-02  7.349311E-04  6.487040E-03  5.603273E-02
       143 0001-01-01 11:55:00.00  7.375973E-05  6.585677E+02  6.585678E+02  3.884376E+11
                       (38,01,12)  1.337799E-02  7.411627E-04  6.541501E-03  5.663980E-02
       144 0001-01-01 12:00:00.00  7.526251E-05  6.585677E+02  6.585678E+02  3.884376E+11
                       (07,01,12)  1.353530E-02  7.473902E-04  6.595764E-03  5.724914E-02
      WRT_HIS     - wrote history     fields (Index=1,1) in record = 0000003
      WRT_AVG     - wrote averaged    fields             in record = 0000002
      WRT_DIAGS   - wrote diagnostics fields             in record = 0000002
      WRT_RST     - wrote re-start    fields (Index=1,1) in record = 0000002
       145 0001-01-01 12:05:00.00  7.678253E-05  6.585677E+02  6.585678E+02  3.884376E+11
                       (17,01,12)  1.369332E-02  7.536110E-04  6.649856E-03  5.786075E-02
       146 0001-01-01 12:10:00.00  7.831982E-05  6.585677E+02  6.585678E+02  3.884376E+11
                       (38,01,12)  1.385203E-02  7.598227E-04  6.703878E-03  5.847461E-02
       147 0001-01-01 12:15:00.00  7.987444E-05  6.585677E+02  6.585678E+02  3.884376E+11
                       (17,01,12)  1.401144E-02  7.660242E-04  6.757928E-03  5.909071E-02
       148 0001-01-01 12:20:00.00  8.144641E-05  6.585677E+02  6.585678E+02  3.884376E+11
                       (38,01,12)  1.417155E-02  7.722167E-04  6.812029E-03  5.970904E-02
       149 0001-01-01 12:25:00.00  8.303578E-05  6.585677E+02  6.585678E+02  3.884376E+11
                       (38,01,12)  1.433234E-02  7.784023E-04  6.866119E-03  6.032960E-02
       150 0001-01-01 12:30:00.00  8.464259E-05  6.585677E+02  6.585678E+02  3.884376E+11
                       (38,01,12)  1.449383E-02  7.845829E-04  6.920084E-03  6.095238E-02
       151 0001-01-01 12:35:00.00  8.626689E-05  6.585677E+02  6.585678E+02  3.884376E+11
                       (38,01,12)  1.465601E-02  7.907588E-04  6.973827E-03  6.157736E-02
       152 0001-01-01 12:40:00.00  8.790874E-05  6.585677E+02  6.585678E+02  3.884376E+11
                       (38,01,12)  1.481887E-02  7.969280E-04  7.027322E-03  6.220454E-02
       153 0001-01-01 12:45:00.00  8.956817E-05  6.585677E+02  6.585678E+02  3.884376E+11
                       (38,01,12)  1.498241E-02  8.030874E-04  7.080639E-03  6.283391E-02
       154 0001-01-01 12:50:00.00  9.124525E-05  6.585677E+02  6.585678E+02  3.884376E+11
                       (38,01,12)  1.514664E-02  8.092343E-04  7.133902E-03  6.346545E-02
       155 0001-01-01 12:55:00.00  9.294004E-05  6.585677E+02  6.585678E+02  3.884376E+11
                       (38,01,12)  1.531154E-02  8.153676E-04  7.187223E-03  6.409917E-02
       156 0001-01-01 13:00:00.00  9.465261E-05  6.585677E+02  6.585678E+02  3.884376E+11
                       (38,01,12)  1.547711E-02  8.214884E-04  7.240631E-03  6.473504E-02
       157 0001-01-01 13:05:00.00  9.638301E-05  6.585677E+02  6.585678E+02  3.884376E+11
                       (38,01,12)  1.564336E-02  8.275989E-04  7.294062E-03  6.537306E-02
       158 0001-01-01 13:10:00.00  9.813131E-05  6.585677E+02  6.585678E+02  3.884376E+11
                       (38,01,12)  1.581027E-02  8.337012E-04  7.347397E-03  6.601323E-02
       159 0001-01-01 13:15:00.00  9.989760E-05  6.585677E+02  6.585678E+02  3.884376E+11
                       (38,01,12)  1.597786E-02  8.397956E-04  7.400537E-03  6.665552E-02
       160 0001-01-01 13:20:00.00  1.016819E-04  6.585677E+02  6.585678E+02  3.884376E+11
                       (38,01,12)  1.614610E-02  8.458807E-04  7.453451E-03  6.729994E-02
       161 0001-01-01 13:25:00.00  1.034844E-04  6.585677E+02  6.585678E+02  3.884376E+11
                       (38,01,12)  1.631501E-02  8.519542E-04  7.506187E-03  6.794648E-02
       162 0001-01-01 13:30:00.00  1.053050E-04  6.585677E+02  6.585678E+02  3.884376E+11
                       (38,01,12)  1.648458E-02  8.580143E-04  7.558835E-03  6.859512E-02
       163 0001-01-01 13:35:00.00  1.071439E-04  6.585677E+02  6.585678E+02  3.884376E+11
                       (38,01,12)  1.665480E-02  8.640606E-04  7.611462E-03  6.924585E-02
       164 0001-01-01 13:40:00.00  1.090011E-04  6.585677E+02  6.585678E+02  3.884376E+11
                       (38,01,12)  1.682568E-02  8.700945E-04  7.664066E-03  6.989866E-02
       165 0001-01-01 13:45:00.00  1.108768E-04  6.585677E+02  6.585678E+02  3.884376E+11
                       (38,01,12)  1.699721E-02  8.761177E-04  7.716577E-03  7.055356E-02
       166 0001-01-01 13:50:00.00  1.127710E-04  6.585677E+02  6.585678E+02  3.884376E+11
                       (38,01,12)  1.716939E-02  8.821312E-04  7.768901E-03  7.121052E-02
       167 0001-01-01 13:55:00.00  1.146837E-04  6.585677E+02  6.585678E+02  3.884376E+11
                       (38,01,12)  1.734222E-02  8.881341E-04  7.820985E-03  7.186954E-02
       168 0001-01-01 14:00:00.00  1.166152E-04  6.585677E+02  6.585678E+02  3.884376E+11
                       (38,01,12)  1.751568E-02  8.941242E-04  7.872848E-03  7.253061E-02
       169 0001-01-01 14:05:00.00  1.185655E-04  6.585677E+02  6.585678E+02  3.884376E+11
                       (38,01,12)  1.768979E-02  9.000990E-04  7.924578E-03  7.319372E-02
       170 0001-01-01 14:10:00.00  1.205346E-04  6.585677E+02  6.585678E+02  3.884376E+11
                       (38,01,12)  1.786454E-02  9.060568E-04  7.976275E-03  7.385886E-02
       171 0001-01-01 14:15:00.00  1.225228E-04  6.585677E+02  6.585678E+02  3.884376E+11
                       (38,01,12)  1.803992E-02  9.119976E-04  8.027999E-03  7.452601E-02
       172 0001-01-01 14:20:00.00  1.245301E-04  6.585677E+02  6.585678E+02  3.884376E+11
                       (38,01,12)  1.821594E-02  9.179230E-04  8.079735E-03  7.519518E-02
       173 0001-01-01 14:25:00.00  1.265566E-04  6.585677E+02  6.585678E+02  3.884376E+11
                       (38,01,12)  1.839259E-02  9.238351E-04  8.131395E-03  7.586636E-02
       174 0001-01-01 14:30:00.00  1.286025E-04  6.585677E+02  6.585678E+02  3.884376E+11
                       (38,01,12)  1.856986E-02  9.297351E-04  8.182873E-03  7.653952E-02
       175 0001-01-01 14:35:00.00  1.306679E-04  6.585677E+02  6.585678E+02  3.884376E+11
                       (38,01,12)  1.874777E-02  9.356227E-04  8.234100E-03  7.721467E-02
       176 0001-01-01 14:40:00.00  1.327528E-04  6.585677E+02  6.585678E+02  3.884376E+11
                       (38,01,12)  1.892629E-02  9.414962E-04  8.285080E-03  7.789180E-02
       177 0001-01-01 14:45:00.00  1.348574E-04  6.585677E+02  6.585678E+02  3.884376E+11
                       (38,01,12)  1.910543E-02  9.473534E-04  8.335876E-03  7.857089E-02
       178 0001-01-01 14:50:00.00  1.369819E-04  6.585677E+02  6.585678E+02  3.884376E+11
                       (38,01,12)  1.928520E-02  9.531932E-04  8.386566E-03  7.925194E-02
       179 0001-01-01 14:55:00.00  1.391264E-04  6.585677E+02  6.585678E+02  3.884376E+11
                       (04,01,12)  1.946557E-02  9.590156E-04  8.437191E-03  7.993493E-02
       180 0001-01-01 15:00:00.00  1.412909E-04  6.585677E+02  6.585678E+02  3.884376E+11
                       (04,01,12)  1.964656E-02  9.648219E-04  8.487732E-03  8.061986E-02
       181 0001-01-01 15:05:00.00  1.434757E-04  6.585677E+02  6.585678E+02  3.884376E+11
                       (04,01,12)  1.982816E-02  9.706131E-04  8.538123E-03  8.130672E-02
       182 0001-01-01 15:10:00.00  1.456809E-04  6.585677E+02  6.585678E+02  3.884376E+11
                       (04,01,12)  2.001037E-02  9.763895E-04  8.588297E-03  8.199550E-02
       183 0001-01-01 15:15:00.00  1.479067E-04  6.585677E+02  6.585678E+02  3.884376E+11
                       (04,01,12)  2.019318E-02  9.821499E-04  8.638232E-03  8.268619E-02
       184 0001-01-01 15:20:00.00  1.501531E-04  6.585677E+02  6.585678E+02  3.884376E+11
                       (04,01,12)  2.037660E-02  9.878921E-04  8.687971E-03  8.337878E-02
       185 0001-01-01 15:25:00.00  1.524204E-04  6.585677E+02  6.585678E+02  3.884376E+11
                       (07,01,12)  2.056061E-02  9.936142E-04  8.737595E-03  8.407326E-02
       186 0001-01-01 15:30:00.00  1.547087E-04  6.585677E+02  6.585678E+02  3.884376E+11
                       (04,01,12)  2.074522E-02  9.993156E-04  8.787171E-03  8.476962E-02
       187 0001-01-01 15:35:00.00  1.570182E-04  6.585677E+02  6.585678E+02  3.884376E+11
                       (41,01,12)  2.093042E-02  1.004997E-03  8.836716E-03  8.546786E-02
       188 0001-01-01 15:40:00.00  1.593490E-04  6.585677E+02  6.585678E+02  3.884376E+11
                       (36,01,12)  2.111622E-02  1.010660E-03  8.886179E-03  8.616795E-02
       189 0001-01-01 15:45:00.00  1.617014E-04  6.585677E+02  6.585678E+02  3.884376E+11
                       (41,01,12)  2.130261E-02  1.016307E-03  8.935470E-03  8.686991E-02
       190 0001-01-01 15:50:00.00  1.640755E-04  6.585677E+02  6.585678E+02  3.884376E+11
                       (39,01,12)  2.148958E-02  1.021937E-03  8.984506E-03  8.757370E-02
       191 0001-01-01 15:55:00.00  1.664714E-04  6.585677E+02  6.585678E+02  3.884376E+11
                       (02,01,12)  2.167713E-02  1.027550E-03  9.033254E-03  8.827934E-02
       192 0001-01-01 16:00:00.00  1.688895E-04  6.585677E+02  6.585679E+02  3.884376E+11
                       (41,01,12)  2.186527E-02  1.033144E-03  9.081747E-03  8.898680E-02
       193 0001-01-01 16:05:00.00  1.713297E-04  6.585677E+02  6.585679E+02  3.884376E+11
                       (41,01,12)  2.205398E-02  1.038717E-03  9.130052E-03  8.969607E-02
       194 0001-01-01 16:10:00.00  1.737924E-04  6.585677E+02  6.585679E+02  3.884376E+11
                       (41,01,12)  2.224328E-02  1.044269E-03  9.178235E-03  9.040715E-02
       195 0001-01-01 16:15:00.00  1.762777E-04  6.585677E+02  6.585679E+02  3.884376E+11
                       (41,01,12)  2.243314E-02  1.049799E-03  9.226317E-03  9.112003E-02
       196 0001-01-01 16:20:00.00  1.787859E-04  6.585677E+02  6.585679E+02  3.884376E+11
                       (27,01,12)  2.262357E-02  1.055309E-03  9.274265E-03  9.183470E-02
       197 0001-01-01 16:25:00.00  1.813170E-04  6.585677E+02  6.585679E+02  3.884376E+11
                       (41,01,12)  2.281458E-02  1.060800E-03  9.322020E-03  9.255115E-02
       198 0001-01-01 16:30:00.00  1.838714E-04  6.585677E+02  6.585679E+02  3.884376E+11
                       (20,01,12)  2.300614E-02  1.066270E-03  9.369541E-03  9.326936E-02
       199 0001-01-01 16:35:00.00  1.864493E-04  6.585677E+02  6.585679E+02  3.884376E+11
                       (36,01,12)  2.319827E-02  1.071720E-03  9.416825E-03  9.398934E-02
       200 0001-01-01 16:40:00.00  1.890508E-04  6.585677E+02  6.585679E+02  3.884376E+11
                       (27,01,12)  2.339096E-02  1.077147E-03  9.463920E-03  9.471107E-02
       201 0001-01-01 16:45:00.00  1.916763E-04  6.585677E+02  6.585679E+02  3.884376E+11
                       (27,01,12)  2.358421E-02  1.082549E-03  9.510887E-03  9.543454E-02
       202 0001-01-01 16:50:00.00  1.943258E-04  6.585677E+02  6.585679E+02  3.884376E+11
                       (27,01,12)  2.377801E-02  1.087928E-03  9.557761E-03  9.615974E-02
       203 0001-01-01 16:55:00.00  1.969997E-04  6.585677E+02  6.585679E+02  3.884376E+11
                       (30,01,12)  2.397237E-02  1.093284E-03  9.604527E-03  9.688666E-02
       204 0001-01-01 17:00:00.00  1.996981E-04  6.585677E+02  6.585679E+02  3.884376E+11
                       (27,01,12)  2.416727E-02  1.098619E-03  9.651119E-03  9.761529E-02
       205 0001-01-01 17:05:00.00  2.024213E-04  6.585677E+02  6.585679E+02  3.884376E+11
                       (10,01,12)  2.436272E-02  1.103934E-03  9.697458E-03  9.834563E-02
       206 0001-01-01 17:10:00.00  2.051696E-04  6.585677E+02  6.585679E+02  3.884376E+11
                       (20,01,12)  2.455871E-02  1.109228E-03  9.743494E-03  9.907767E-02
       207 0001-01-01 17:15:00.00  2.079431E-04  6.585677E+02  6.585679E+02  3.884376E+11
                       (27,01,12)  2.475525E-02  1.114500E-03  9.789228E-03  9.981138E-02
       208 0001-01-01 17:20:00.00  2.107421E-04  6.585677E+02  6.585679E+02  3.884376E+11
                       (10,01,12)  2.495232E-02  1.119748E-03  9.834711E-03  1.005468E-01
       209 0001-01-01 17:25:00.00  2.135668E-04  6.585677E+02  6.585679E+02  3.884376E+11
                       (10,01,12)  2.514993E-02  1.124971E-03  9.880012E-03  1.012838E-01
       210 0001-01-01 17:30:00.00  2.164175E-04  6.585677E+02  6.585679E+02  3.884376E+11
                       (20,01,12)  2.534807E-02  1.130168E-03  9.925176E-03  1.020225E-01
       211 0001-01-01 17:35:00.00  2.192945E-04  6.585677E+02  6.585679E+02  3.884376E+11
                       (15,01,12)  2.554675E-02  1.135341E-03  9.970205E-03  1.027629E-01
       212 0001-01-01 17:40:00.00  2.221979E-04  6.585677E+02  6.585679E+02  3.884376E+11
                       (15,01,12)  2.574595E-02  1.140489E-03  1.001506E-02  1.035049E-01
       213 0001-01-01 17:45:00.00  2.251281E-04  6.585677E+02  6.585679E+02  3.884376E+11
                       (09,01,12)  2.594567E-02  1.145615E-03  1.005969E-02  1.042485E-01
       214 0001-01-01 17:50:00.00  2.280853E-04  6.585677E+02  6.585679E+02  3.884376E+11
                       (10,01,12)  2.614592E-02  1.150716E-03  1.010407E-02  1.049938E-01
       215 0001-01-01 17:55:00.00  2.310697E-04  6.585677E+02  6.585679E+02  3.884376E+11
                       (05,01,12)  2.634668E-02  1.155791E-03  1.014820E-02  1.057406E-01
       216 0001-01-01 18:00:00.00  2.340818E-04  6.585677E+02  6.585679E+02  3.884376E+11
                       (08,01,12)  2.654797E-02  1.160841E-03  1.019213E-02  1.064891E-01
      WRT_HIS     - wrote history     fields (Index=1,1) in record = 0000004
      WRT_AVG     - wrote averaged    fields             in record = 0000003
      WRT_DIAGS   - wrote diagnostics fields             in record = 0000003
      WRT_RST     - wrote re-start    fields (Index=1,1) in record = 0000001
       217 0001-01-01 18:05:00.00  2.371216E-04  6.585677E+02  6.585679E+02  3.884376E+11
                       (05,01,12)  2.674976E-02  1.165864E-03  1.023591E-02  1.072391E-01
       218 0001-01-01 18:10:00.00  2.401895E-04  6.585677E+02  6.585679E+02  3.884376E+11
                       (17,01,12)  2.695207E-02  1.170860E-03  1.027953E-02  1.079907E-01
       219 0001-01-01 18:15:00.00  2.432858E-04  6.585677E+02  6.585679E+02  3.884376E+11
                       (20,01,12)  2.715489E-02  1.175832E-03  1.032297E-02  1.087439E-01
       220 0001-01-01 18:20:00.00  2.464106E-04  6.585677E+02  6.585679E+02  3.884376E+11
                       (05,01,12)  2.735821E-02  1.180779E-03  1.036617E-02  1.094986E-01
       221 0001-01-01 18:25:00.00  2.495644E-04  6.585677E+02  6.585679E+02  3.884376E+11
                       (05,01,12)  2.756204E-02  1.185703E-03  1.040906E-02  1.102549E-01
       222 0001-01-01 18:30:00.00  2.527473E-04  6.585677E+02  6.585679E+02  3.884376E+11
                       (05,01,12)  2.776636E-02  1.190602E-03  1.045163E-02  1.110128E-01
       223 0001-01-01 18:35:00.00  2.559597E-04  6.585677E+02  6.585679E+02  3.884376E+11
                       (05,01,12)  2.797119E-02  1.195474E-03  1.049391E-02  1.117721E-01
       224 0001-01-01 18:40:00.00  2.592018E-04  6.585677E+02  6.585679E+02  3.884376E+11
                       (05,01,12)  2.817650E-02  1.200320E-03  1.053596E-02  1.125330E-01
       225 0001-01-01 18:45:00.00  2.624739E-04  6.585677E+02  6.585679E+02  3.884376E+11
                       (05,01,12)  2.838231E-02  1.205136E-03  1.057783E-02  1.132954E-01
       226 0001-01-01 18:50:00.00  2.657763E-04  6.585677E+02  6.585679E+02  3.884376E+11
                       (31,01,12)  2.858861E-02  1.209925E-03  1.061956E-02  1.140593E-01
       227 0001-01-01 18:55:00.00  2.691092E-04  6.585677E+02  6.585679E+02  3.884376E+11
                       (05,01,12)  2.879539E-02  1.214686E-03  1.066112E-02  1.148247E-01
       228 0001-01-01 19:00:00.00  2.724731E-04  6.585677E+02  6.585680E+02  3.884376E+11
                       (25,01,12)  2.900266E-02  1.219421E-03  1.070246E-02  1.155915E-01
       229 0001-01-01 19:05:00.00  2.758681E-04  6.585677E+02  6.585680E+02  3.884376E+11
                       (05,01,12)  2.921041E-02  1.224130E-03  1.074356E-02  1.163599E-01
       230 0001-01-01 19:10:00.00  2.792946E-04  6.585677E+02  6.585680E+02  3.884376E+11
                       (25,01,12)  2.941864E-02  1.228812E-03  1.078438E-02  1.171297E-01
       231 0001-01-01 19:15:00.00  2.827529E-04  6.585677E+02  6.585680E+02  3.884376E+11
                       (05,01,12)  2.962734E-02  1.233466E-03  1.082496E-02  1.179009E-01
       232 0001-01-01 19:20:00.00  2.862433E-04  6.585677E+02  6.585680E+02  3.884376E+11
                       (05,01,12)  2.983651E-02  1.238091E-03  1.086531E-02  1.186736E-01
       233 0001-01-01 19:25:00.00  2.897659E-04  6.585677E+02  6.585680E+02  3.884376E+11
                       (25,01,12)  3.004615E-02  1.242689E-03  1.090547E-02  1.194477E-01
       234 0001-01-01 19:30:00.00  2.933213E-04  6.585677E+02  6.585680E+02  3.884376E+11
                       (25,01,12)  3.025626E-02  1.247258E-03  1.094543E-02  1.202233E-01
       235 0001-01-01 19:35:00.00  2.969095E-04  6.585677E+02  6.585680E+02  3.884376E+11
                       (05,01,12)  3.046683E-02  1.251801E-03  1.098515E-02  1.210002E-01
       236 0001-01-01 19:40:00.00  3.005310E-04  6.585677E+02  6.585680E+02  3.884376E+11
                       (25,01,12)  3.067787E-02  1.256318E-03  1.102458E-02  1.217786E-01
       237 0001-01-01 19:45:00.00  3.041861E-04  6.585677E+02  6.585680E+02  3.884376E+11
                       (05,01,12)  3.088936E-02  1.260808E-03  1.106371E-02  1.225583E-01
       238 0001-01-01 19:50:00.00  3.078749E-04  6.585677E+02  6.585680E+02  3.884376E+11
                       (04,01,12)  3.110131E-02  1.265271E-03  1.110252E-02  1.233395E-01
       239 0001-01-01 19:55:00.00  3.115978E-04  6.585677E+02  6.585680E+02  3.884376E+11
                       (25,01,12)  3.131370E-02  1.269706E-03  1.114108E-02  1.241220E-01
       240 0001-01-01 20:00:00.00  3.153552E-04  6.585677E+02  6.585680E+02  3.884376E+11
                       (04,01,12)  3.152655E-02  1.274110E-03  1.117942E-02  1.249058E-01
       241 0001-01-01 20:05:00.00  3.191473E-04  6.585677E+02  6.585680E+02  3.884376E+11
                       (35,01,12)  3.173984E-02  1.278485E-03  1.121760E-02  1.256910E-01
       242 0001-01-01 20:10:00.00  3.229744E-04  6.585677E+02  6.585680E+02  3.884376E+11
                       (35,01,12)  3.195358E-02  1.282831E-03  1.125562E-02  1.264776E-01
       243 0001-01-01 20:15:00.00  3.268368E-04  6.585677E+02  6.585680E+02  3.884376E+11
                       (35,01,12)  3.216776E-02  1.287148E-03  1.129344E-02  1.272655E-01
       244 0001-01-01 20:20:00.00  3.307349E-04  6.585677E+02  6.585680E+02  3.884376E+11
                       (35,01,12)  3.238237E-02  1.291438E-03  1.133101E-02  1.280547E-01
       245 0001-01-01 20:25:00.00  3.346689E-04  6.585677E+02  6.585680E+02  3.884376E+11
                       (35,01,12)  3.259742E-02  1.295701E-03  1.136832E-02  1.288452E-01
       246 0001-01-01 20:30:00.00  3.386392E-04  6.585677E+02  6.585680E+02  3.884376E+11
                       (35,01,12)  3.281291E-02  1.299935E-03  1.140534E-02  1.296370E-01
       247 0001-01-01 20:35:00.00  3.426459E-04  6.585677E+02  6.585680E+02  3.884376E+11
                       (35,01,12)  3.302882E-02  1.304141E-03  1.144211E-02  1.304302E-01
       248 0001-01-01 20:40:00.00  3.466895E-04  6.585677E+02  6.585680E+02  3.884376E+11
                       (35,01,12)  3.324515E-02  1.308319E-03  1.147864E-02  1.312246E-01
       249 0001-01-01 20:45:00.00  3.507703E-04  6.585677E+02  6.585680E+02  3.884376E+11
                       (35,01,12)  3.346192E-02  1.312467E-03  1.151496E-02  1.320202E-01
       250 0001-01-01 20:50:00.00  3.548884E-04  6.585677E+02  6.585680E+02  3.884376E+11
                       (35,01,12)  3.367910E-02  1.316588E-03  1.155105E-02  1.328171E-01
       251 0001-01-01 20:55:00.00  3.590442E-04  6.585677E+02  6.585680E+02  3.884376E+11
                       (35,01,12)  3.389669E-02  1.320682E-03  1.158688E-02  1.336153E-01
       252 0001-01-01 21:00:00.00  3.632380E-04  6.585677E+02  6.585680E+02  3.884376E+11
                       (35,01,12)  3.411470E-02  1.324748E-03  1.162242E-02  1.344147E-01
       253 0001-01-01 21:05:00.00  3.674700E-04  6.585677E+02  6.585680E+02  3.884376E+11
                       (35,01,12)  3.433313E-02  1.328788E-03  1.165767E-02  1.352154E-01
       254 0001-01-01 21:10:00.00  3.717406E-04  6.585677E+02  6.585681E+02  3.884376E+11
                       (35,01,12)  3.455196E-02  1.332798E-03  1.169265E-02  1.360172E-01
       255 0001-01-01 21:15:00.00  3.760501E-04  6.585677E+02  6.585681E+02  3.884376E+11
                       (16,01,12)  3.477119E-02  1.336780E-03  1.172740E-02  1.368203E-01
       256 0001-01-01 21:20:00.00  3.803987E-04  6.585677E+02  6.585681E+02  3.884376E+11
                       (16,01,12)  3.499083E-02  1.340731E-03  1.176197E-02  1.376246E-01
       257 0001-01-01 21:25:00.00  3.847868E-04  6.585677E+02  6.585681E+02  3.884376E+11
                       (16,01,12)  3.521087E-02  1.344654E-03  1.179638E-02  1.384300E-01
       258 0001-01-01 21:30:00.00  3.892146E-04  6.585677E+02  6.585681E+02  3.884376E+11
                       (35,01,12)  3.543131E-02  1.348548E-03  1.183060E-02  1.392367E-01
       259 0001-01-01 21:35:00.00  3.936824E-04  6.585677E+02  6.585681E+02  3.884376E+11
                       (19,01,12)  3.565213E-02  1.352414E-03  1.186461E-02  1.400445E-01
       260 0001-01-01 21:40:00.00  3.981905E-04  6.585677E+02  6.585681E+02  3.884376E+11
                       (26,01,12)  3.587335E-02  1.356254E-03  1.189835E-02  1.408534E-01
       261 0001-01-01 21:45:00.00  4.027392E-04  6.585677E+02  6.585681E+02  3.884376E+11
                       (19,01,12)  3.609496E-02  1.360067E-03  1.193182E-02  1.416635E-01
       262 0001-01-01 21:50:00.00  4.073288E-04  6.585677E+02  6.585681E+02  3.884376E+11
                       (19,01,12)  3.631695E-02  1.363853E-03  1.196500E-02  1.424747E-01
       263 0001-01-01 21:55:00.00  4.119594E-04  6.585677E+02  6.585681E+02  3.884376E+11
                       (19,01,12)  3.653932E-02  1.367611E-03  1.199794E-02  1.432871E-01
       264 0001-01-01 22:00:00.00  4.166315E-04  6.585677E+02  6.585681E+02  3.884376E+11
                       (19,01,12)  3.676207E-02  1.371341E-03  1.203065E-02  1.441006E-01
       265 0001-01-01 22:05:00.00  4.213452E-04  6.585677E+02  6.585681E+02  3.884376E+11
                       (19,01,12)  3.698519E-02  1.375044E-03  1.206314E-02  1.449152E-01
       266 0001-01-01 22:10:00.00  4.261008E-04  6.585677E+02  6.585681E+02  3.884376E+11
                       (19,01,12)  3.720869E-02  1.378721E-03  1.209541E-02  1.457308E-01
       267 0001-01-01 22:15:00.00  4.308985E-04  6.585677E+02  6.585681E+02  3.884376E+11
                       (19,01,12)  3.743256E-02  1.382371E-03  1.212743E-02  1.465476E-01
       268 0001-01-01 22:20:00.00  4.357387E-04  6.585677E+02  6.585681E+02  3.884376E+11
                       (19,01,12)  3.765679E-02  1.385994E-03  1.215919E-02  1.473654E-01
       269 0001-01-01 22:25:00.00  4.406216E-04  6.585677E+02  6.585681E+02  3.884376E+11
                       (19,01,12)  3.788139E-02  1.389591E-03  1.219069E-02  1.481843E-01
       270 0001-01-01 22:30:00.00  4.455474E-04  6.585677E+02  6.585681E+02  3.884376E+11
                       (19,01,12)  3.810634E-02  1.393160E-03  1.222196E-02  1.490043E-01
       271 0001-01-01 22:35:00.00  4.505164E-04  6.585677E+02  6.585681E+02  3.884376E+11
                       (19,01,12)  3.833166E-02  1.396702E-03  1.225305E-02  1.498252E-01
       272 0001-01-01 22:40:00.00  4.555289E-04  6.585677E+02  6.585681E+02  3.884376E+11
                       (19,01,12)  3.855732E-02  1.400216E-03  1.228397E-02  1.506473E-01
       273 0001-01-01 22:45:00.00  4.605851E-04  6.585677E+02  6.585681E+02  3.884376E+11
                       (17,01,12)  3.878334E-02  1.403703E-03  1.231473E-02  1.514703E-01
       274 0001-01-01 22:50:00.00  4.656853E-04  6.585677E+02  6.585682E+02  3.884376E+11
                       (19,01,12)  3.900971E-02  1.407164E-03  1.234529E-02  1.522943E-01
       275 0001-01-01 22:55:00.00  4.708297E-04  6.585677E+02  6.585682E+02  3.884376E+11
                       (19,01,12)  3.923642E-02  1.410600E-03  1.237562E-02  1.531194E-01
       276 0001-01-01 23:00:00.00  4.760185E-04  6.585677E+02  6.585682E+02  3.884376E+11
                       (02,01,12)  3.946347E-02  1.414012E-03  1.240569E-02  1.539454E-01
       277 0001-01-01 23:05:00.00  4.812520E-04  6.585677E+02  6.585682E+02  3.884376E+11
                       (36,01,12)  3.969086E-02  1.417399E-03  1.243549E-02  1.547724E-01
       278 0001-01-01 23:10:00.00  4.865303E-04  6.585677E+02  6.585682E+02  3.884376E+11
                       (02,01,12)  3.991859E-02  1.420761E-03  1.246504E-02  1.556004E-01
       279 0001-01-01 23:15:00.00  4.918537E-04  6.585677E+02  6.585682E+02  3.884376E+11
                       (36,01,12)  4.014665E-02  1.424097E-03  1.249436E-02  1.564293E-01
       280 0001-01-01 23:20:00.00  4.972225E-04  6.585677E+02  6.585682E+02  3.884376E+11
                       (06,01,12)  4.037504E-02  1.427409E-03  1.252349E-02  1.572591E-01
       281 0001-01-01 23:25:00.00  5.026367E-04  6.585677E+02  6.585682E+02  3.884376E+11
                       (26,01,12)  4.060375E-02  1.430695E-03  1.255242E-02  1.580899E-01
       282 0001-01-01 23:30:00.00  5.080967E-04  6.585677E+02  6.585682E+02  3.884376E+11
                       (06,01,12)  4.083279E-02  1.433957E-03  1.258115E-02  1.589217E-01
       283 0001-01-01 23:35:00.00  5.136027E-04  6.585677E+02  6.585682E+02  3.884376E+11
                       (02,01,12)  4.106215E-02  1.437195E-03  1.260966E-02  1.597543E-01
       284 0001-01-01 23:40:00.00  5.191548E-04  6.585677E+02  6.585682E+02  3.884376E+11
                       (02,01,12)  4.129182E-02  1.440409E-03  1.263795E-02  1.605878E-01
       285 0001-01-01 23:45:00.00  5.247532E-04  6.585677E+02  6.585682E+02  3.884376E+11
                       (02,01,12)  4.152181E-02  1.443599E-03  1.266603E-02  1.614223E-01
       286 0001-01-01 23:50:00.00  5.303983E-04  6.585677E+02  6.585682E+02  3.884376E+11
                       (02,01,12)  4.175211E-02  1.446764E-03  1.269393E-02  1.622576E-01
       287 0001-01-01 23:55:00.00  5.360901E-04  6.585677E+02  6.585682E+02  3.884376E+11
                       (26,01,12)  4.198271E-02  1.449905E-03  1.272168E-02  1.630937E-01
       288 0001-01-02 00:00:00.00  5.418289E-04  6.585677E+02  6.585682E+02  3.884376E+11
                       (06,01,12)  4.221363E-02  1.453021E-03  1.274927E-02  1.639308E-01
      WRT_HIS     - wrote history     fields (Index=1,1) in record = 0000005
      WRT_AVG     - wrote averaged    fields             in record = 0000004
      WRT_DIAGS   - wrote diagnostics fields             in record = 0000004
      WRT_RST     - wrote re-start    fields (Index=1,1) in record = 0000002

 Elapsed CPU time (seconds):

 Thread #  0 CPU:      17.504
 Total:                17.504

 Nonlinear model elapsed CPU time profile, Grid: 01

  Allocation and array initialization ..............         0.026  ( 0.1473 %)
  Ocean state initialization .......................         0.005  ( 0.0270 %)
  Reading of input data ............................         0.001  ( 0.0031 %)
  Processing of input data .........................         0.009  ( 0.0516 %)
  Processing of output time averaged data ..........         1.646  ( 9.4021 %)
  Computation of vertical boundary conditions ......         0.009  ( 0.0526 %)
  Computation of global information integrals ......         0.181  ( 1.0329 %)
  Writing of output data ...........................         0.112  ( 0.6384 %)
  Model 2D kernel ..................................         8.304  (47.4428 %)
  2D/3D coupling, vertical metrics .................         0.154  ( 0.8823 %)
  Omega vertical velocity ..........................         0.163  ( 0.9318 %)
  Equation of state for seawater ...................         0.101  ( 0.5753 %)
  3D equations right-side terms ....................         0.857  ( 4.8943 %)
  3D equations predictor step ......................         2.128  (12.1555 %)
  Pressure gradient ................................         0.435  ( 2.4860 %)
  Corrector time-step for 3D momentum ..............         1.539  ( 8.7919 %)
  Corrector time-step for tracers ..................         1.115  ( 6.3690 %)
                                              Total:        16.784   95.8839

  Unique code regions profiled .....................        16.784   95.8839 %
  Residual, non-profiled code ......................         0.720    4.1161 %


 All percentages are with respect to total time =           17.504


 ROMS/TOMS - Output NetCDF summary for Grid 01:
             number of time records written in HISTORY file = 00000005
             number of time records written in RESTART file = 00000002
             number of time records written in AVERAGE file = 00000004

 Analytical header files used:

     ROMS/Functionals/ana_btflux.h
     ROMS/Functionals/ana_grid.h
     /home/hadfield/ROMS/roms-test-mgh/upwelling/ana_initial.h
     ROMS/Functionals/ana_smflux.h
     ROMS/Functionals/ana_stflux.h
     ROMS/Functionals/ana_vmix.h

 ROMS/TOMS: DONE... Tuesday - July 17, 2018 -  4:44:32 PM
