--------------------------------------------------------------------------------
 Model Input Parameters:  ROMS/TOMS version 3.7  
                          Thursday - February 7, 2019 -  3:32:43 PM
--------------------------------------------------------------------------------

 Wind-Driven Upwelling/Downwelling over a Periodic Channel

 Operating system : Linux
 CPU/hardware     : x86_64
 Compiler system  : gfortran
 Compiler command : /usr/bin/gfortran
 Compiler flags   : -frepack-arrays -O3 -ffast-math -

 Git Origin URL: git@github.com:hadfieldnz/roms-trunk-mgh.git
 Git Revision  : master commit 26d9d6005f1e797e673563bb085ba03927e54733
 Git Status    : The working tree is clean

 Host Name     : niwa-1019320.niwa.local
 Local Root    : /home/hadfield/ROMS/roms-trunk-mgh
 Header Dir    : /home/hadfield/ROMS/roms-test-mgh/upwelling
 Header file   : upwelling.h
 Analytical Dir: /home/hadfield/ROMS/roms-test-mgh/upwelling

 Resolution, Grid 01: 41x80x16,  Parallel Threads: 1,  Tiling: 3x3


 Physical Parameters, Grid: 01
 =============================

        288  ntimes            Number of timesteps for 3-D equations.
    300.000  dt                Timestep size (s) for 3-D equations.
         30  ndtfast           Number of timesteps for 2-D equations between
                                 each 3D timestep.
          1  ERstr             Starting ensemble/perturbation run number.
          1  ERend             Ending ensemble/perturbation run number.
          0  nrrec             Number of restart records to read from disk.
          T  LcycleRST         Switch to recycle time-records in restart file.
         72  nRST              Number of timesteps between the writing of data
                                 into restart fields.
          1  ninfo             Number of timesteps between print of information
                                 to standard output.
          1  nSTA              Number of timesteps between the writing of data
                                 the stations file.
          1  nFLT              Number of timesteps between the writing of data
                                 into floats file.
          T  ldefout           Switch to create a new output NetCDF file(s).
         72  nHIS              Number of timesteps between the writing fields
                                 into history file.
          0  nQCK              Number of timesteps between the writing fields
                                 into quicksave file.
          1  ntsAVG            Starting timestep for the accumulation of output
                                 time-averaged data.
         72  nAVG              Number of timesteps between the writing of
                                 time-averaged data into averages file.
          1  ntsDIA            Starting timestep for the accumulation of output
                                 time-averaged diagnostics data.
         72  nDIA              Number of timesteps between the writing of
                                 time-averaged data into diagnostics file.
 0.0000E+00  nl_visc2          NLM Horizontal, harmonic mixing coefficient
                                 (m2/s) for momentum.
          F  LuvSponge         Turning OFF sponge on horizontal momentum.
          F  LtracerSponge(01) Turning OFF sponge on tracer 01: temp
          F  LtracerSponge(02) Turning OFF sponge on tracer 02: salt
 1.0000E-06  Akt_bak(01)       Background vertical mixing coefficient (m2/s)
                                 for tracer 01: temp
 1.0000E-06  Akt_bak(02)       Background vertical mixing coefficient (m2/s)
                                 for tracer 02: salt
 1.0000E-05  Akv_bak           Background vertical mixing coefficient (m2/s)
                                 for momentum.
 3.0000E-04  rdrg              Linear bottom drag coefficient (m/s).
 3.0000E-03  rdrg2             Quadratic bottom drag coefficient.
 2.0000E-02  Zob               Bottom roughness (m).
          2  Vtransform        S-coordinate transformation equation.
          4  Vstretching       S-coordinate stretching function.
 3.0000E+00  theta_s           S-coordinate surface control parameter.
 0.0000E+00  theta_b           S-coordinate bottom  control parameter.
     25.000  Tcline            S-coordinate surface/bottom layer width (m) used
                                 in vertical coordinate stretching.
   1025.000  rho0              Mean density (kg/m3) for Boussinesq approximation.
      0.000  dstart            Time-stamp assigned to model initialization (days).
       0.00  time_ref          Reference time for units attribute (yyyymmdd.dd)
 0.0000E+00  Tnudg(01)         Nudging/relaxation time scale (days)
                                 for tracer 01: temp
 0.0000E+00  Tnudg(02)         Nudging/relaxation time scale (days)
                                 for tracer 02: salt
 0.0000E+00  Znudg             Nudging/relaxation time scale (days)
                                 for free-surface.
 0.0000E+00  M2nudg            Nudging/relaxation time scale (days)
                                 for 2D momentum.
 0.0000E+00  M3nudg            Nudging/relaxation time scale (days)
                                 for 3D momentum.
 0.0000E+00  obcfac            Factor between passive and active
                                 open boundary conditions.
          F  VolCons(1)        NLM western  edge boundary volume conservation.
          F  VolCons(2)        NLM southern edge boundary volume conservation.
          F  VolCons(3)        NLM eastern  edge boundary volume conservation.
          F  VolCons(4)        NLM northern edge boundary volume conservation.
     14.000  T0                Background potential temperature (C) constant.
     35.000  S0                Background salinity (PSU) constant.
   1027.000  R0                Background density (kg/m3) used in linear Equation
                                 of State.
 1.7000E-04  Tcoef             Thermal expansion coefficient (1/Celsius).
 7.6000E-04  Scoef             Saline contraction coefficient (1/PSU).
      1.000  gamma2            Slipperiness variable: free-slip (1.0) or 
                                                      no-slip (-1.0).
          F  LuvSrc            Turning OFF momentum point Sources/Sinks.
          F  LwSrc             Turning OFF volume influx point Sources/Sinks.
          F  LtracerSrc(01)    Turning OFF point Sources/Sinks on tracer 01: temp
          F  LtracerSrc(02)    Turning OFF point Sources/Sinks on tracer 02: salt
          F  LsshCLM           Turning OFF processing of SSH climatology.
          F  Lm2CLM            Turning OFF processing of 2D momentum climatology.
          F  Lm3CLM            Turning OFF processing of 3D momentum climatology.
          F  LtracerCLM(01)    Turning OFF processing of climatology tracer 01: temp
          F  LtracerCLM(02)    Turning OFF processing of climatology tracer 02: salt
          F  LnudgeM2CLM       Turning OFF nudging of 2D momentum climatology.
          F  LnudgeM3CLM       Turning OFF nudging of 3D momentum climatology.
          F  LnudgeTCLM(01)    Turning OFF nudging of climatology tracer 01: temp
          F  LnudgeTCLM(02)    Turning OFF nudging of climatology tracer 02: salt

          T  Hout(idFsur)      Write out free-surface.
          T  Hout(idUbar)      Write out 2D U-momentum component.
          T  Hout(idVbar)      Write out 2D V-momentum component.
          T  Hout(idUvel)      Write out 3D U-momentum component.
          T  Hout(idVvel)      Write out 3D V-momentum component.
          T  Hout(idWvel)      Write out W-momentum component.
          T  Hout(idOvel)      Write out omega vertical velocity.
          T  Hout(idTvar)      Write out tracer 01: temp
          T  Hout(idTvar)      Write out tracer 02: salt
          T  Hout(idDano)      Write out density anomaly.

          T  Aout(idFsur)      Write out averaged free-surface.
          T  Aout(idUbar)      Write out averaged 2D U-momentum component.
          T  Aout(idVbar)      Write out averaged 2D V-momentum component.
          T  Aout(idUvel)      Write out averaged 3D U-momentum component.
          T  Aout(idVvel)      Write out averaged 3D V-momentum component.
          T  Aout(idWvel)      Write out averaged W-momentum component.
          T  Aout(idOvel)      Write out averaged omega vertical velocity.
          T  Aout(idTvar)      Write out averaged tracer 01: temp
          T  Aout(idTvar)      Write out averaged tracer 02: salt
          T  Aout(idDano)      Write out averaged density anomaly.

          T  Dout(M2rate)      Write out 2D momentum acceleration.
          T  Dout(M2pgrd)      Write out 2D momentum pressure gradient.
          T  Dout(M2fcor)      Write out 2D momentum Coriolis force.
          T  Dout(M2hadv)      Write out 2D momentum horizontal advection.
          T  Dout(M2xadv)      Write out 2D momentum horizontal X-advection.
          T  Dout(M2yadv)      Write out 2D momentum horizontal Y-advection.
          T  Dout(M2hvis)      Write out 2D momentum horizontal viscosity.
          T  Dout(M2xvis)      Write out 2D momentum horizontal X-viscosity.
          T  Dout(M2yvis)      Write out 2D momentum horizontal Y-viscosity.
          T  Dout(M2sstr)      Write out 2D momentum surface stress.
          T  Dout(M2bstr)      Write out 2D momentum bottom stress.

          T  Dout(M3rate)      Write out 3D momentum acceleration.
          T  Dout(M3pgrd)      Write out 3D momentum pressure gradient.
          T  Dout(M3fcor)      Write out 3D momentum Coriolis force.
          T  Dout(M3hadv)      Write out 3D momentum horizontal advection.
          T  Dout(M3xadv)      Write out 3D momentum horizontal X-advection.
          T  Dout(M3yadv)      Write out 3D momentum horizontal Y-advection.
          T  Dout(M3vadv)      Write out 3D momentum vertical advection.
          T  Dout(M3hvis)      Write out 3D momentum horizontal viscosity.
          T  Dout(M3xvis)      Write out 3D momentum horizontal X-viscosity.
          T  Dout(M3yvis)      Write out 3D momentum horizontal Y-viscosity.
          T  Dout(M3vvis)      Write out 3D momentum vertical viscosity.

          T  Dout(iTrate)      Write out rate of change of tracer 01: temp
          T  Dout(iTrate)      Write out rate of change of tracer 02: salt
          T  Dout(iThadv)      Write out horizontal advection, tracer 01: temp
          T  Dout(iThadv)      Write out horizontal advection, tracer 02: salt
          T  Dout(iTxadv)      Write out horizontal X-advection, tracer 01: temp
          T  Dout(iTxadv)      Write out horizontal X-advection, tracer 02: salt
          T  Dout(iTyadv)      Write out horizontal Y-advection, tracer 01: temp
          T  Dout(iTyadv)      Write out horizontal Y-advection, tracer 02: salt
          T  Dout(iTvadv)      Write out vertical advection, tracer 01: temp
          T  Dout(iTvadv)      Write out vertical advection, tracer 02: salt
          T  Dout(iTvdif)      Write out vertical diffusion, tracer 01: temp
          T  Dout(iTvdif)      Write out vertical diffusion, tracer 02: salt

 Output/Input Files:

             Output Restart File:  roms_rst.nc
             Output History File:  roms_his.nc
            Output Averages File:  roms_avg.nc
         Output Diagnostics File:  roms_dia.nc
            Output Stations File:  roms_sta.nc
              Output Floats File:  roms_flt.nc
          Station positions File:  stations.in
   Initial Floats Positions File:  floats_upwelling.in

 Tile partition information for Grid 01:  41x80x16  tiling: 3x3

     tile     Istr     Iend     Jstr     Jend     Npts

        0        1       14        1       27     6048
        1       15       28        1       27     6048
        2       29       41        1       27     5616
        3        1       14       28       54     6048
        4       15       28       28       54     6048
        5       29       41       28       54     5616
        6        1       14       55       80     5824
        7       15       28       55       80     5824
        8       29       41       55       80     5408

 Tile minimum and maximum fractional coordinates for Grid 01:
   (interior points only)

     tile     Xmin     Xmax     Ymin     Ymax     grid

        0    -1.50    43.50     0.50    82.50  RHO-points
        1    -2.50    43.50     0.50    82.50  RHO-points
        2    -2.50    42.50     0.50    82.50  RHO-points
        3    -1.50    43.50    -0.50    82.50  RHO-points
        4    -2.50    43.50    -0.50    82.50  RHO-points
        5    -2.50    42.50    -0.50    82.50  RHO-points
        6    -1.50    43.50    -0.50    81.50  RHO-points
        7    -2.50    43.50    -0.50    81.50  RHO-points
        8    -2.50    42.50    -0.50    81.50  RHO-points

        0    -2.00    43.50     0.50    82.50    U-points
        1    -2.50    43.50     0.50    82.50    U-points
        2    -2.50    42.00     0.50    82.50    U-points
        3    -2.00    43.50    -0.50    82.50    U-points
        4    -2.50    43.50    -0.50    82.50    U-points
        5    -2.50    42.00    -0.50    82.50    U-points
        6    -2.00    43.50    -0.50    81.50    U-points
        7    -2.50    43.50    -0.50    81.50    U-points
        8    -2.50    42.00    -0.50    81.50    U-points

        0    -1.50    43.50     0.00    82.50    V-points
        1    -2.50    43.50     0.00    82.50    V-points
        2    -2.50    42.50     0.00    82.50    V-points
        3    -1.50    43.50    -0.50    82.50    V-points
        4    -2.50    43.50    -0.50    82.50    V-points
        5    -2.50    42.50    -0.50    82.50    V-points
        6    -1.50    43.50    -0.50    81.00    V-points
        7    -2.50    43.50    -0.50    81.00    V-points
        8    -2.50    42.50    -0.50    81.00    V-points


 Floats Initial Locations, Grid: 01
 ==================================

               Ft0     Fx0     Fy0     Fz0      Fdt      Fdx      Fdy      Fdz

0 1    1    0.1000   10.00    5.00   -1.00    0.000    0.000    0.000    0.000
0 1    1    0.1000   10.00   10.00   -1.00    0.000    0.000    0.000    0.000
0 1    1    0.1000   10.00   15.00   -1.00    0.000    0.000    0.000    0.000
0 1    1    0.1000   10.00   20.00   -1.00    0.000    0.000    0.000    0.000
0 1    1    0.1000   15.00    5.00   -1.00    0.000    0.000    0.000    0.000
0 1    1    0.1000   15.00   10.00   -1.00    0.000    0.000    0.000    0.000
0 1    1    0.1000   15.00   15.00   -1.00    0.000    0.000    0.000    0.000
0 1    1    0.1000   15.00   20.00   -1.00    0.000    0.000    0.000    0.000
0 1    1    0.1000   20.00    5.00   -1.00    0.000    0.000    0.000    0.000
0 1    1    0.1000   20.00   10.00   -1.00    0.000    0.000    0.000    0.000
0 1    1    0.1000   20.00   15.00   -1.00    0.000    0.000    0.000    0.000
0 1    1    0.1000   20.00   20.00   -1.00    0.000    0.000    0.000    0.000
0 1    1    0.1000   10.00   55.00   -1.00    0.000    0.000    0.000    0.000
0 1    1    0.1000   10.00   60.00   -1.00    0.000    0.000    0.000    0.000
0 1    1    0.1000   10.00   65.00   -1.00    0.000    0.000    0.000    0.000
0 1    1    0.1000   10.00   70.00   -1.00    0.000    0.000    0.000    0.000
0 1    1    0.1000   15.00   55.00   -1.00    0.000    0.000    0.000    0.000
0 1    1    0.1000   15.00   60.00   -1.00    0.000    0.000    0.000    0.000
0 1    1    0.1000   15.00   65.00   -1.00    0.000    0.000    0.000    0.000
0 1    1    0.1000   15.00   70.00   -1.00    0.000    0.000    0.000    0.000
0 1    1    0.1000   20.00   55.00   -1.00    0.000    0.000    0.000    0.000
0 1    1    0.1000   20.00   60.00   -1.00    0.000    0.000    0.000    0.000
0 1    1    0.1000   20.00   65.00   -1.00    0.000    0.000    0.000    0.000
0 1    1    0.1000   20.00   70.00   -1.00    0.000    0.000    0.000    0.000

         24  Nfloats         Number of float trajectories to compute.


 Stations Parameters, Grid: 01
 =============================

          1  Nstation        Number of stations to write out into stations file.
          T  Sout(idFsur)    Write out free-surface.
          T  Sout(idUbar)    Write out 2D U-momentum component.
          T  Sout(idVbar)    Write out 2D V-momentum component.
          T  Sout(idUvel)    Write out 3D U-momentum component.
          T  Sout(idVvel)    Write out 3D V-momentum component.
          T  Sout(idWvel)    Write out W-momentum component.
          T  Sout(idOvel)    Write out omega vertical velocity.
          T  Sout(idTvar)    Write out tracer 01: temp
          T  Sout(idTvar)    Write out tracer 02: salt
          T  Sout(idDano)    Write out density anomaly.
          T  Sout(idVvis)    Write out vertical viscosity coefficient.
          T  Sout(idTdif)    Write out vertical T-diffusion coefficient.
          T  Sout(idSdif)    Write out vertical S-diffusion coefficient.

             Flag and positions for station 0001:  0    20.0000   40.0000

 Lateral Boundary Conditions: NLM
 ============================

 Variable               Grid  West Edge    South Edge   East Edge    North Edge
 ---------              ----  ----------   ----------   ----------   ----------

 zeta                     1   Periodic     Closed       Periodic     Closed

 ubar                     1   Periodic     Closed       Periodic     Closed

 vbar                     1   Periodic     Closed       Periodic     Closed

 u                        1   Periodic     Closed       Periodic     Closed

 v                        1   Periodic     Closed       Periodic     Closed

 temp                     1   Periodic     Closed       Periodic     Closed

 salt                     1   Periodic     Closed       Periodic     Closed

 Activated C-preprocessing Options:

 UPWELLING               Wind-Driven Upwelling/Downwelling over a Periodic Channel
 ANA_BSFLUX              Analytical kinematic bottom salinity flux
 ANA_BTFLUX              Analytical kinematic bottom temperature flux
 ANA_DRAG_GRID           Analytical spatially varying linear drag coefficient
 ANA_GRID                Analytical grid set-up
 ANA_INITIAL             Analytical initial conditions
 ANA_SMFLUX              Analytical kinematic surface momentum flux
 ANA_SSFLUX              Analytical kinematic surface salinity flux
 ANA_STFLUX              Analytical kinematic surface temperature flux
 ANA_VMIX                Analytical vertical mixing coefficients
 ASSUMED_SHAPE           Using assumed-shape arrays
 AVERAGES                Writing out time-averaged nonlinear model fields
 DIAGNOSTICS_TS          Computing and writing tracer diagnostic terms
 DIAGNOSTICS_UV          Computing and writing momentum diagnostic terms
 DJ_GRADPS               Parabolic Splines density Jacobian (Shchepetkin, 2002)
 FLOATS                  Simulated Lagrangian drifters
 FLOAT_VWALK             Lagrangian drifters with vertical diffusion, random walk
 MIX_S_UV                Mixing of momentum along constant S-surfaces
 NONLINEAR               Nonlinear Model
 !NONLIN_EOS             Linear Equation of State for seawater
 POWER_LAW               Power-law shape time-averaging barotropic filter
 PROFILE                 Time profiling activated
 RST_SINGLE              Single precision fields in restart NetCDF file
 SALINITY                Using salinity
 SINGLE_PRECISION        Single precision arithmetic numerical kernel.
 SOLVE3D                 Solving 3D Primitive Equations
 SPLINES_VDIFF           Parabolic Spline Reconstruction for Vertical Diffusion
 SPLINES_VVISC           Parabolic Spline Reconstruction for Vertical Viscosity
 STATIONS                Writing out station data
 TS_U3HADVECTION         Third-order upstream horizontal advection of tracers
 TS_C4VADVECTION         Fourth-order centered vertical advection of tracers
 UV_ADV                  Advection of momentum
 UV_COR                  Coriolis term
 UV_U3HADVECTION         Third-order upstream horizontal advection of 3D momentum
 UV_C4VADVECTION         Fourth-order centered vertical advection of momentum
 UV_DRAG_GRID            Spatially varying linear drag coefficient
 UV_LDRAG                Linear bottom stress
 UV_VIS2                 Harmonic mixing of momentum
 VAR_RHO_2D              Variable density barotropic mode
 !VWALK_FORWARD          Lagrangian drifters, predictor/corrector random walk

 Process Information:

 Thread #    0 (pid=   12362) is active.

 INITIAL: Configuring and initializing forward nonlinear model ...
 *******

    ANA_GRID    - x-location of PSI-points: x_psi
                   (Grid = 01, Min =  0.00000000E+00 Max =  4.00000000E+04)
    ANA_GRID    - y-location of PSI-points: y_psi
                   (Grid = 01, Min =  0.00000000E+00 Max =  8.00000000E+04)
    ANA_GRID    - x-location of RHO-points: x_rho
                   (Grid = 01, Min =  5.00000000E+02 Max =  4.05000000E+04)
    ANA_GRID    - y-location of RHO-points: y_rho
                   (Grid = 01, Min = -5.00000000E+02 Max =  8.05000000E+04)
    ANA_GRID    - x-location of U-points: x_u
                   (Grid = 01, Min =  0.00000000E+00 Max =  4.00000000E+04)
    ANA_GRID    - y-location of U-points: y_u
                   (Grid = 01, Min = -5.00000000E+02 Max =  8.05000000E+04)
    ANA_GRID    - x-location of V-points: x_v
                   (Grid = 01, Min =  5.00000000E+02 Max =  4.05000000E+04)
    ANA_GRID    - y-location of V-points: y_v
                   (Grid = 01, Min =  0.00000000E+00 Max =  8.00000000E+04)
    ANA_GRID    - reciprocal XI-grid spacing: pm
                   (Grid = 01, Min =  1.00000005E-03 Max =  1.00000005E-03)
    ANA_GRID    - reciprocal ETA-grid spacing: pn
                   (Grid = 01, Min =  1.00000005E-03 Max =  1.00000005E-03)
    ANA_GRID    - angle between XI-axis and EAST: angler
                   (Grid = 01, Min =  0.00000000E+00 Max =  0.00000000E+00)
    ANA_GRID    - Coriolis parameter at RHO-points: f
                   (Grid = 01, Min = -8.26000032E-05 Max = -8.26000032E-05)
    ANA_GRID    - bathymetry at RHO-points: h
                   (Grid = 01, Min =  2.52004890E+01 Max =  1.50000000E+02)

 Vertical S-coordinate System, Grid 01:

 level   S-coord     Cs-curve   Z   at hmin       at hc    half way     at hmax

    16   0.0000000   0.0000000        0.000       0.000       0.000       0.000
    15  -0.0625000  -0.0019442       -0.809      -0.806      -1.348      -1.589
    14  -0.1250000  -0.0078455       -1.668      -1.661      -2.966      -3.687
    13  -0.1875000  -0.0179119       -2.580      -2.568      -4.867      -6.321
    12  -0.2500000  -0.0324983       -3.549      -3.531      -7.077      -9.535
    11  -0.3125000  -0.0521190       -4.581      -4.558      -9.630     -13.397
    10  -0.3750000  -0.0774659       -5.686      -5.656     -12.573     -17.996
     9  -0.4375000  -0.1094327       -6.875      -6.837     -15.967     -23.445
     8  -0.5000000  -0.1491465       -8.162      -8.114     -19.889     -29.890
     7  -0.5625000  -0.1980075       -9.564      -9.506     -24.435     -37.512
     6  -0.6250000  -0.2577387      -11.104     -11.034     -29.721     -46.531
     5  -0.6875000  -0.3304460      -12.808     -12.724     -35.892     -57.218
     4  -0.7500000  -0.4186931      -14.709     -14.609     -43.121     -69.903
     3  -0.8125000  -0.5255915      -16.846     -16.726     -51.622     -84.987
     2  -0.8750000  -0.6549105      -19.266     -19.124     -61.651    -102.953
     1  -0.9375000  -0.8112096      -22.028     -21.859     -73.518    -124.388
     0  -1.0000000  -1.0000000      -25.200     -25.000     -87.600    -150.000

 Time Splitting Weights for Grid 01:    ndtfast =  30    nfast =  42
 ==================================

    Primary            Secondary            Accumulated to Current Step

  1-0.0008094437383769 0.0333333333333333-0.0008094437383769 0.0333333333333333
  2-0.0014053566728197 0.0333603147912792-0.0022148004111966 0.0666936481246126
  3-0.0017877524645903 0.0334071600137066-0.0040025528757869 0.1001008081383191
  4-0.0019566842408176 0.0334667517625262-0.0059592371166046 0.1335675599008453
  5-0.0019122901320372 0.0335319745705535-0.0078715272486418 0.1670995344713988
  6-0.0016548570247459 0.0335957175749547-0.0095263842733877 0.2006952520463536
  7-0.0011849025289723 0.0336508794757796-0.0107112868023600 0.2343461315221331
  8-0.0005032751608631 0.0336903762267453-0.0112145619632232 0.2680365077488784
  9 0.0003887272597151 0.0337071520654408-0.0108258347035081 0.3017436598143192
 10 0.0014892209965583 0.0336941944901169-0.0093366137069498 0.3354378543044362
 11 0.0027955815694920 0.0336445537902317-0.0065410321374578 0.3690824080946679
 12 0.0043042707117221 0.0335513677379153-0.0022367614257357 0.4026337758325831
 13 0.0060106451121704 0.0334078920475245 0.0037738836864347 0.4360416678801076
 14 0.0079087469427945 0.0332075372104522 0.0116826306292293 0.4692492050905598
 15 0.0099910761708920 0.0329439123123590 0.0216737068001212 0.5021931174029188
 16 0.0122483446563884 0.0326108764399960 0.0339220514565096 0.5348039938429148
 17 0.0146692120341107 0.0322025982847830 0.0485912634906203 0.5670065921276978
 18 0.0172400033810439 0.0317136245503127 0.0658312668716642 0.5987202166780105
 19 0.0199444086685725 0.0311389577709445 0.0857756755402367 0.6298591744489550
 20 0.0227631639997064 0.0304741441486588 0.1085388395399431 0.6603333185976138
 21 0.0256737146312910 0.0297153720153352 0.1342125541712341 0.6900486906129490
 22 0.0286498597812016 0.0288595815276255 0.1628624139524357 0.7189082721405746
 23 0.0316613792205220 0.0279045862015855 0.1945237931729577 0.7468128583421600
 24 0.0346736416507075 0.0268492068942347 0.2291974348236651 0.7736620652363948
 25 0.0376471948657328 0.0256934188392112 0.2668446296893979 0.7993554840756060
 26 0.0405373376992232 0.0244385123436867 0.3073819673886211 0.8237939964192927
 27 0.0432936737565711 0.0230872677537126 0.3506756411451922 0.8468812641730054
 28 0.0458596469320356 0.0216441452951603 0.3965352880772278 0.8685254094681656
 29 0.0481720587108284 0.0201154903974257 0.4447073467880562 0.8886408998655914
 30 0.0501605672561820 0.0185097551070648 0.4948679140442381 0.9071506549726561
 31 0.0517471682814030 0.0168377361985254 0.5466150823256412 0.9239883911711815
 32 0.0528456577069106 0.0151128305891453 0.5994607400325517 0.9391012217603267
 33 0.0533610761022577 0.0133513086655816 0.6528218161348094 0.9524525304259084
 34 0.0531891349131379 0.0115726061288397 0.7060109510479473 0.9640251365547481
 35 0.0522156244733761 0.0097996349650684 0.7582265755213234 0.9738247715198165
 36 0.0503158038019031 0.0080591141492892 0.8085423793232265 0.9818838856691057
 37 0.0473537721847153 0.0063819206892258 0.8558961515079418 0.9882658063583315
 38 0.0431818225418188 0.0048034616164019 0.8990779740497606 0.9930692679747335
 39 0.0376397765791564 0.0033640675316746 0.9367177506289170 0.9964333355064081
 40 0.0305543017255206 0.0021094083123694 0.9672720523544377 0.9985427438187775
 41 0.0217382098544505 0.0010909315881854 0.9890102622088881 0.9996336754069629
 42 0.0109897377911119 0.0003663245930371 1.0000000000000000 1.0000000000000000

 ndtfast, nfast =   30  42   nfast/ndtfast =  1.40000

 Centers of gravity and integrals (values must be 1, 1, approx 1/2, 1, 1):

    1.000000000000 1.047601458608 0.523800729304 1.000000000000 1.000000000000

 Power filter parameters, Fgamma, gamma =  0.28400   0.18933

 Metrics information for Grid 01:
 ===============================

 Minimum X-grid spacing, DXmin =  9.99999939E-01 km
 Maximum X-grid spacing, DXmax =  9.99999939E-01 km
 Minimum Y-grid spacing, DYmin =  9.99999939E-01 km
 Maximum Y-grid spacing, DYmax =  9.99999939E-01 km
 Minimum Z-grid spacing, DZmin =  8.08965802E-01 m
 Maximum Z-grid spacing, DZmax =  2.56123352E+01 m

 Minimum barotropic Courant Number =  2.22358644E-01
 Maximum barotropic Courant Number =  5.42494297E-01
 Maximum Coriolis   Courant Number =  2.47800015E-02

    ANA_INITIAL - vertically integrated u-momentum component: ubar
                   (Grid = 01, Min =  0.00000000E+00 Max =  0.00000000E+00)
    ANA_INITIAL - vertically integrated v-momentum component: vbar
                   (Grid = 01, Min =  0.00000000E+00 Max =  0.00000000E+00)
    ANA_INITIAL - free-surface: zeta
                   (Grid = 01, Min =  0.00000000E+00 Max =  0.00000000E+00)
    ANA_INITIAL - u-momentum component: u
                   (Grid = 01, Min =  0.00000000E+00 Max =  0.00000000E+00)
    ANA_INITIAL - v-momentum component: v
                   (Grid = 01, Min =  0.00000000E+00 Max =  0.00000000E+00)
    ANA_INITIAL - potential temperature: temp
                   (Grid = 01, Min =  1.45204830E+01 Max =  2.19365215E+01)
    ANA_INITIAL - salinity: salt
                   (Grid = 01, Min =  3.50000000E+01 Max =  3.50000000E+01)
    ANA_DRAG    - linear bottom drag coefficient: rdrag
                   (Grid = 01, Min =  4.76811663E-04 Max =  1.66711956E-03)

 Basin information for Grid 01:

 Maximum grid stiffness ratios:  rx0 =   6.931663E-02 (Beckmann and Haidvogel)
                                 rx1 =   8.661245E-01 (Haney)

 Initial domain volumes:  TotVolume =  3.8843862221E+11 m3
                         MinCellVol =  8.4521375000E+05 m3
                         MaxCellVol =  2.5612332000E+07 m3
                            Max/Min =  3.0302785873E+01

 NL ROMS/TOMS: started time-stepping: (Grid: 01 TimeSteps: 000000000001 - 000000000288)


 TIME-STEP YYYY-MM-DD hh:mm:ss.ss  KINETIC_ENRG   POTEN_ENRG    TOTAL_ENRG    NET_VOLUME
                     C => (i,j,k)       Cu            Cv            Cw         Max Speed

         0 0001-01-01 00:00:00.00  0.000000E+00  6.585677E+02  6.585677E+02  3.884375E+11
                       (00,00,00)  0.000000E+00  0.000000E+00  0.000000E+00  0.000000E+00
      DEF_HIS     - creating  history      file, Grid 01: roms_his.nc
      WRT_HIS     - wrote history     fields (Index=1,1) in record = 0000001
      DEF_AVG     - creating  average      file, Grid 01: roms_avg.nc
      DEF_DIAGS   - creating  diagnostics  file, Grid 01: roms_dia.nc
      DEF_STATION - creating  stations     file, Grid 01: roms_sta.nc
      DEF_FLOATS  - creating  floats       file, Grid 01: roms_flt.nc
      DEF_RST   - creating restart file: roms_rst.nc
         1 0001-01-01 00:05:00.00  1.535703E-12  6.585677E+02  6.585677E+02  3.884375E+11
                       (31,12,01)  2.676341E-09  2.069062E-06  0.000000E+00  9.585332E-06
         2 0001-01-01 00:10:00.00  1.302272E-11  6.585677E+02  6.585677E+02  3.884375E+11
                       (37,02,08)  6.788691E-08  1.797155E-06  1.452856E-05  3.663514E-05
         3 0001-01-01 00:15:00.00  6.734932E-11  6.585677E+02  6.585677E+02  3.884375E+11
                       (35,79,16)  2.683325E-05  3.881092E-06  5.633217E-06  9.272369E-05
         4 0001-01-01 00:20:00.00  2.167013E-10  6.585677E+02  6.585677E+02  3.884375E+11
                       (17,01,16)  4.946266E-05  4.353735E-06  5.130319E-06  1.661480E-04
         5 0001-01-01 00:25:00.00  5.278466E-10  6.585677E+02  6.585677E+02  3.884375E+11
                       (31,79,16)  7.448001E-05  7.376067E-06  4.935003E-06  2.539480E-04
         6 0001-01-01 00:30:00.00  1.076745E-09  6.585677E+02  6.585677E+02  3.884375E+11
                       (01,79,16)  1.041232E-04  9.416453E-06  7.071719E-06  3.543354E-04
         7 0001-01-01 00:35:00.00  1.955679E-09  6.585677E+02  6.585677E+02  3.884375E+11
                       (07,79,16)  1.371907E-04  1.176027E-05  7.147896E-06  4.660013E-04
         8 0001-01-01 00:40:00.00  3.256591E-09  6.585677E+02  6.585677E+02  3.884375E+11
                       (01,80,16)  1.745792E-04  1.152612E-05  1.137444E-05  5.881953E-04
         9 0001-01-01 00:45:00.00  5.090156E-09  6.585677E+02  6.585677E+02  3.884375E+11
                       (22,79,16)  2.122692E-04  1.768118E-05  1.153667E-05  7.201105E-04
        10 0001-01-01 00:50:00.00  7.564244E-09  6.585677E+02  6.585677E+02  3.884375E+11
                       (03,79,16)  2.538311E-04  2.104749E-05  1.426020E-05  8.610703E-04
        11 0001-01-01 00:55:00.00  1.080283E-08  6.585676E+02  6.585676E+02  3.884375E+11
                       (03,79,16)  2.980272E-04  2.470434E-05  1.585589E-05  1.010658E-03
        12 0001-01-01 01:00:00.00  1.493037E-08  6.585677E+02  6.585677E+02  3.884375E+11
                       (03,79,16)  3.445196E-04  2.864452E-05  1.468645E-05  1.168432E-03
        13 0001-01-01 01:05:00.00  2.007785E-08  6.585677E+02  6.585677E+02  3.884375E+11
                       (22,79,16)  3.933038E-04  3.293890E-05  1.324939E-05  1.334015E-03
        14 0001-01-01 01:10:00.00  2.638412E-08  6.585677E+02  6.585677E+02  3.884375E+11
                       (34,79,16)  4.443496E-04  3.779375E-05  1.441775E-05  1.507006E-03
        15 0001-01-01 01:15:00.00  3.399337E-08  6.585677E+02  6.585677E+02  3.884375E+11
                       (19,79,16)  4.974214E-04  4.264471E-05  1.537233E-05  1.687173E-03
        16 0001-01-01 01:20:00.00  4.305470E-08  6.585677E+02  6.585677E+02  3.884375E+11
                       (22,79,16)  5.524220E-04  4.827891E-05  1.534687E-05  1.874064E-03
        17 0001-01-01 01:25:00.00  5.371681E-08  6.585677E+02  6.585677E+02  3.884375E+11
                       (39,79,16)  6.095745E-04  5.408917E-05  1.629591E-05  2.067731E-03
        18 0001-01-01 01:30:00.00  6.613761E-08  6.585677E+02  6.585677E+02  3.884375E+11
                       (27,79,16)  6.684049E-04  6.016793E-05  1.813932E-05  2.267887E-03
        19 0001-01-01 01:35:00.00  8.048363E-08  6.585677E+02  6.585677E+02  3.884375E+11
                       (33,79,16)  7.290785E-04  6.658355E-05  1.850629E-05  2.474393E-03
        20 0001-01-01 01:40:00.00  9.691720E-08  6.585677E+02  6.585677E+02  3.884375E+11
                       (39,79,16)  7.915052E-04  7.335246E-05  1.761666E-05  2.686582E-03
        21 0001-01-01 01:45:00.00  1.156060E-07  6.585677E+02  6.585677E+02  3.884375E+11
                       (18,79,16)  8.555333E-04  8.057891E-05  1.473110E-05  2.904922E-03
        22 0001-01-01 01:50:00.00  1.367223E-07  6.585677E+02  6.585677E+02  3.884375E+11
                       (33,79,16)  9.214738E-04  8.813502E-05  1.359327E-05  3.128986E-03
        23 0001-01-01 01:55:00.00  1.604415E-07  6.585677E+02  6.585677E+02  3.884375E+11
                       (37,79,16)  9.887405E-04  9.621305E-05  1.488488E-05  3.358877E-03
        24 0001-01-01 02:00:00.00  1.869432E-07  6.585677E+02  6.585677E+02  3.884375E+11
                       (18,79,16)  1.057681E-03  1.045686E-04  1.585437E-05  3.593731E-03
        25 0001-01-01 02:05:00.00  2.164102E-07  6.585678E+02  6.585678E+02  3.884375E+11
                       (37,79,16)  1.128100E-03  1.134647E-04  1.509068E-05  3.834241E-03
        26 0001-01-01 02:10:00.00  2.490247E-07  6.585678E+02  6.585678E+02  3.884375E+11
                       (18,79,16)  1.200142E-03  1.226672E-04  1.594459E-05  4.080005E-03
        27 0001-01-01 02:15:00.00  2.849740E-07  6.585678E+02  6.585678E+02  3.884375E+11
                       (18,79,16)  1.273623E-03  1.321279E-04  1.554576E-05  4.330369E-03
        28 0001-01-01 02:20:00.00  3.244458E-07  6.585678E+02  6.585678E+02  3.884375E+11
                       (18,79,16)  1.348259E-03  1.414936E-04  1.447307E-05  4.586293E-03
        29 0001-01-01 02:25:00.00  3.676337E-07  6.585678E+02  6.585678E+02  3.884375E+11
                       (37,79,16)  1.424432E-03  1.512589E-04  1.251940E-05  4.846716E-03
        30 0001-01-01 02:30:00.00  4.147302E-07  6.585678E+02  6.585678E+02  3.884375E+11
                       (37,79,16)  1.502001E-03  1.617127E-04  9.719043E-06  5.111716E-03
        31 0001-01-01 02:35:00.00  4.659341E-07  6.585678E+02  6.585678E+02  3.884375E+11
                       (37,79,16)  1.581022E-03  1.725110E-04  8.908296E-06  5.381858E-03
        32 0001-01-01 02:40:00.00  5.214368E-07  6.585678E+02  6.585678E+02  3.884374E+11
                       (15,78,16)  1.657575E-03  1.874277E-04  9.854786E-06  5.656468E-03
        33 0001-01-01 02:45:00.00  5.814409E-07  6.585678E+02  6.585678E+02  3.884374E+11
                       (15,78,16)  1.738409E-03  2.007514E-04  1.053982E-05  5.935275E-03
        34 0001-01-01 02:50:00.00  6.461411E-07  6.585679E+02  6.585679E+02  3.884374E+11
                       (30,78,16)  1.821034E-03  2.143197E-04  1.088693E-05  6.218934E-03
        35 0001-01-01 02:55:00.00  7.157428E-07  6.585678E+02  6.585678E+02  3.884374E+11
                       (01,78,16)  1.903379E-03  2.282738E-04  1.137182E-05  6.507062E-03
        36 0001-01-01 03:00:00.00  7.904468E-07  6.585678E+02  6.585678E+02  3.884374E+11
                       (15,78,16)  1.988483E-03  2.429750E-04  9.853881E-06  6.799244E-03
        37 0001-01-01 03:05:00.00  8.704488E-07  6.585678E+02  6.585678E+02  3.884374E+11
                       (12,09,16)  1.998202E-03  3.352928E-04  1.097416E-05  7.095952E-03
        38 0001-01-01 03:10:00.00  9.559585E-07  6.585678E+02  6.585678E+02  3.884374E+11
                       (11,08,16)  2.091026E-03  3.501750E-04  7.557495E-06  7.396899E-03
        39 0001-01-01 03:15:00.00  1.047172E-06  6.585678E+02  6.585678E+02  3.884375E+11
                       (11,08,16)  2.175045E-03  3.719013E-04  8.610261E-06  7.701145E-03
        40 0001-01-01 03:20:00.00  1.144295E-06  6.585678E+02  6.585678E+02  3.884375E+11
                       (11,08,16)  2.260492E-03  3.944256E-04  9.682994E-06  8.010291E-03
        41 0001-01-01 03:25:00.00  1.247533E-06  6.585678E+02  6.585678E+02  3.884375E+11
                       (11,08,16)  2.346362E-03  4.178000E-04  1.054912E-05  8.323167E-03
        42 0001-01-01 03:30:00.00  1.357092E-06  6.585678E+02  6.585678E+02  3.884375E+11
                       (23,07,16)  2.450149E-03  4.273868E-04  9.310241E-06  8.640105E-03
        43 0001-01-01 03:35:00.00  1.473172E-06  6.585678E+02  6.585678E+02  3.884375E+11
                       (24,10,16)  2.496185E-03  4.928639E-04  1.282008E-05  8.960865E-03
        44 0001-01-01 03:40:00.00  1.595980E-06  6.585678E+02  6.585678E+02  3.884375E+11
                       (24,10,16)  2.583212E-03  5.206551E-04  1.578936E-05  9.285453E-03
        45 0001-01-01 03:45:00.00  1.725723E-06  6.585677E+02  6.585678E+02  3.884375E+11
                       (24,10,16)  2.672191E-03  5.488640E-04  1.748132E-05  9.613859E-03
        46 0001-01-01 03:50:00.00  1.862595E-06  6.585678E+02  6.585678E+02  3.884375E+11
                       (24,10,16)  2.760335E-03  5.771132E-04  1.772366E-05  9.945914E-03
        47 0001-01-01 03:55:00.00  2.006802E-06  6.585678E+02  6.585678E+02  3.884375E+11
                       (32,13,16)  2.820674E-03  6.362499E-04  1.594568E-05  1.028229E-02
        48 0001-01-01 04:00:00.00  2.158556E-06  6.585677E+02  6.585678E+02  3.884375E+11
                       (32,13,16)  2.909660E-03  6.691412E-04  1.324383E-05  1.062161E-02
        49 0001-01-01 04:05:00.00  2.318046E-06  6.585677E+02  6.585677E+02  3.884375E+11
                       (17,25,16)  2.968464E-03  7.271433E-04  1.887766E-05  1.096502E-02
        50 0001-01-01 04:10:00.00  2.485480E-06  6.585678E+02  6.585678E+02  3.884375E+11
                       (38,13,16)  3.086803E-03  7.348168E-04  1.809208E-05  1.131194E-02
        51 0001-01-01 04:15:00.00  2.661052E-06  6.585678E+02  6.585678E+02  3.884375E+11
                       (04,13,16)  3.178691E-03  7.724674E-04  1.480240E-05  1.166223E-02
        52 0001-01-01 04:20:00.00  2.844964E-06  6.585678E+02  6.585678E+02  3.884375E+11
                       (15,25,16)  3.231561E-03  8.370848E-04  2.357497E-05  1.201637E-02
        53 0001-01-01 04:25:00.00  3.037412E-06  6.585677E+02  6.585677E+02  3.884375E+11
                       (09,69,16)  3.382842E-03  8.163365E-04  2.286542E-05  1.237373E-02
        54 0001-01-01 04:30:00.00  3.238581E-06  6.585677E+02  6.585677E+02  3.884375E+11
                       (09,69,16)  3.475174E-03  8.527739E-04  2.462685E-05  1.273473E-02
        55 0001-01-01 04:35:00.00  3.448660E-06  6.585678E+02  6.585678E+02  3.884375E+11
                       (09,69,16)  3.568129E-03  8.897887E-04  2.359614E-05  1.309943E-02
        56 0001-01-01 04:40:00.00  3.667871E-06  6.585678E+02  6.585678E+02  3.884375E+11
                       (34,69,16)  3.663624E-03  9.269326E-04  2.270378E-05  1.346684E-02
        57 0001-01-01 04:45:00.00  3.896369E-06  6.585678E+02  6.585678E+02  3.884375E+11
                       (34,69,16)  3.757371E-03  9.647370E-04  2.380092E-05  1.383786E-02
        58 0001-01-01 04:50:00.00  4.134376E-06  6.585678E+02  6.585678E+02  3.884375E+11
                       (34,69,16)  3.851534E-03  1.004796E-03  2.442368E-05  1.421207E-02
        59 0001-01-01 04:55:00.00  4.382053E-06  6.585678E+02  6.585678E+02  3.884375E+11
                       (29,65,16)  3.902756E-03  1.097871E-03  1.936462E-05  1.458996E-02
        60 0001-01-01 05:00:00.00  4.639602E-06  6.585678E+02  6.585678E+02  3.884375E+11
                       (29,65,16)  3.995744E-03  1.141300E-03  1.926121E-05  1.497053E-02
        61 0001-01-01 05:05:00.00  4.907194E-06  6.585678E+02  6.585678E+02  3.884375E+11
                       (29,65,16)  4.087964E-03  1.186636E-03  1.831413E-05  1.535511E-02
        62 0001-01-01 05:10:00.00  5.185025E-06  6.585678E+02  6.585678E+02  3.884375E+11
                       (29,65,16)  4.180742E-03  1.232016E-03  1.618391E-05  1.574169E-02
        63 0001-01-01 05:15:00.00  5.473236E-06  6.585678E+02  6.585678E+02  3.884375E+11
                       (05,20,16)  4.249857E-03  1.303290E-03  1.853010E-05  1.613241E-02
        64 0001-01-01 05:20:00.00  5.772045E-06  6.585678E+02  6.585678E+02  3.884375E+11
                       (03,65,16)  4.368842E-03  1.327106E-03  1.855899E-05  1.652596E-02
        65 0001-01-01 05:25:00.00  6.081613E-06  6.585678E+02  6.585678E+02  3.884375E+11
                       (03,65,16)  4.463704E-03  1.375241E-03  2.357778E-05  1.692335E-02
        66 0001-01-01 05:30:00.00  6.402111E-06  6.585678E+02  6.585678E+02  3.884375E+11
                       (03,65,16)  4.558066E-03  1.423655E-03  2.478762E-05  1.732294E-02
        67 0001-01-01 05:35:00.00  6.733688E-06  6.585678E+02  6.585678E+02  3.884375E+11
                       (29,01,13)  4.103580E-03  2.660856E-04  1.788276E-03  1.772558E-02
        68 0001-01-01 05:40:00.00  7.076539E-06  6.585678E+02  6.585678E+02  3.884375E+11
                       (29,01,13)  4.205756E-03  2.727775E-04  1.831852E-03  1.813173E-02
        69 0001-01-01 05:45:00.00  7.430780E-06  6.585678E+02  6.585678E+02  3.884375E+11
                       (18,01,13)  4.309117E-03  2.797229E-04  1.874710E-03  1.854061E-02
        70 0001-01-01 05:50:00.00  7.796617E-06  6.585678E+02  6.585678E+02  3.884375E+11
                       (29,01,13)  4.412636E-03  2.861381E-04  1.922277E-03  1.895287E-02
        71 0001-01-01 05:55:00.00  8.174190E-06  6.585678E+02  6.585678E+02  3.884375E+11
                       (29,01,13)  4.517423E-03  2.927749E-04  1.967833E-03  1.936756E-02
        72 0001-01-01 06:00:00.00  8.563666E-06  6.585678E+02  6.585678E+02  3.884375E+11
                       (29,01,13)  4.623105E-03  2.994032E-04  2.013652E-03  1.978549E-02
      WRT_HIS     - wrote history     fields (Index=1,1) in record = 0000002
      WRT_AVG     - wrote averaged    fields             in record = 0000001
      WRT_DIAGS   - wrote diagnostics fields             in record = 0000001
      WRT_RST     - wrote re-start    fields (Index=1,1) in record = 0000001
        73 0001-01-01 06:05:00.00  8.965189E-06  6.585678E+02  6.585678E+02  3.884375E+11
                       (29,01,13)  4.729634E-03  3.061569E-04  2.058265E-03  2.020603E-02
        74 0001-01-01 06:10:00.00  9.378878E-06  6.585678E+02  6.585678E+02  3.884375E+11
                       (29,01,13)  4.836960E-03  3.128391E-04  2.104560E-03  2.062969E-02
        75 0001-01-01 06:15:00.00  9.804928E-06  6.585677E+02  6.585677E+02  3.884375E+11
                       (29,01,13)  4.945113E-03  3.195099E-04  2.147794E-03  2.105541E-02
        76 0001-01-01 06:20:00.00  1.024346E-05  6.585677E+02  6.585677E+02  3.884375E+11
                       (18,01,13)  5.054803E-03  3.265846E-04  2.190207E-03  2.148511E-02
        77 0001-01-01 06:25:00.00  1.069462E-05  6.585678E+02  6.585678E+02  3.884375E+11
                       (29,01,13)  5.164277E-03  3.331459E-04  2.238418E-03  2.191750E-02
        78 0001-01-01 06:30:00.00  1.115852E-05  6.585678E+02  6.585678E+02  3.884375E+11
                       (29,01,13)  5.275085E-03  3.397586E-04  2.284503E-03  2.235170E-02
        79 0001-01-01 06:35:00.00  1.163529E-05  6.585678E+02  6.585678E+02  3.884375E+11
                       (29,01,13)  5.386722E-03  3.465316E-04  2.329300E-03  2.278976E-02
        80 0001-01-01 06:40:00.00  1.212508E-05  6.585677E+02  6.585677E+02  3.884375E+11
                       (29,01,13)  5.499270E-03  3.531491E-04  2.375241E-03  2.323004E-02
        81 0001-01-01 06:45:00.00  1.262805E-05  6.585677E+02  6.585677E+02  3.884375E+11
                       (29,01,13)  5.612526E-03  3.599577E-04  2.420222E-03  2.367342E-02
        82 0001-01-01 06:50:00.00  1.314425E-05  6.585678E+02  6.585678E+02  3.884375E+11
                       (08,01,13)  5.724924E-03  3.674219E-04  2.466883E-03  2.411927E-02
        83 0001-01-01 06:55:00.00  1.367380E-05  6.585677E+02  6.585677E+02  3.884375E+11
                       (08,01,13)  5.839788E-03  3.740056E-04  2.511984E-03  2.456767E-02
        84 0001-01-01 07:00:00.00  1.421691E-05  6.585677E+02  6.585677E+02  3.884375E+11
                       (22,01,13)  5.955628E-03  3.808608E-04  2.556530E-03  2.501862E-02
        85 0001-01-01 07:05:00.00  1.477359E-05  6.585677E+02  6.585677E+02  3.884375E+11
                       (18,01,13)  6.074182E-03  3.875683E-04  2.600246E-03  2.547282E-02
        86 0001-01-01 07:10:00.00  1.534398E-05  6.585677E+02  6.585677E+02  3.884375E+11
                       (17,01,13)  6.191316E-03  3.938207E-04  2.646405E-03  2.592896E-02
        87 0001-01-01 07:15:00.00  1.592824E-05  6.585678E+02  6.585678E+02  3.884375E+11
                       (17,01,13)  6.309352E-03  4.004468E-04  2.690405E-03  2.638826E-02
        88 0001-01-01 07:20:00.00  1.652640E-05  6.585677E+02  6.585678E+02  3.884375E+11
                       (08,01,13)  6.426004E-03  4.074778E-04  2.739021E-03  2.685007E-02
        89 0001-01-01 07:25:00.00  1.713860E-05  6.585677E+02  6.585678E+02  3.884375E+11
                       (17,01,13)  6.547893E-03  4.140411E-04  2.783825E-03  2.731358E-02
        90 0001-01-01 07:30:00.00  1.776495E-05  6.585677E+02  6.585677E+02  3.884375E+11
                       (18,01,13)  6.668397E-03  4.214326E-04  2.828033E-03  2.778045E-02
        91 0001-01-01 07:35:00.00  1.840548E-05  6.585677E+02  6.585677E+02  3.884375E+11
                       (18,01,13)  6.789420E-03  4.281898E-04  2.873678E-03  2.824939E-02
        92 0001-01-01 07:40:00.00  1.906036E-05  6.585677E+02  6.585677E+02  3.884375E+11
                       (18,01,13)  6.911575E-03  4.350448E-04  2.918378E-03  2.872178E-02
        93 0001-01-01 07:45:00.00  1.972960E-05  6.585677E+02  6.585677E+02  3.884375E+11
                       (17,01,13)  7.034102E-03  4.414307E-04  2.966494E-03  2.919550E-02
        94 0001-01-01 07:50:00.00  2.041335E-05  6.585677E+02  6.585678E+02  3.884375E+11
                       (08,01,13)  7.155257E-03  4.481855E-04  3.013070E-03  2.967201E-02
        95 0001-01-01 07:55:00.00  2.111165E-05  6.585677E+02  6.585677E+02  3.884375E+11
                       (30,01,13)  7.281198E-03  4.550302E-04  3.059814E-03  3.015110E-02
        96 0001-01-01 08:00:00.00  2.182457E-05  6.585677E+02  6.585678E+02  3.884375E+11
                       (34,01,13)  7.405196E-03  4.618263E-04  3.104564E-03  3.063243E-02
        97 0001-01-01 08:05:00.00  2.255218E-05  6.585677E+02  6.585677E+02  3.884375E+11
                       (18,01,13)  7.531907E-03  4.691397E-04  3.149273E-03  3.111640E-02
        98 0001-01-01 08:10:00.00  2.329456E-05  6.585677E+02  6.585677E+02  3.884375E+11
                       (27,01,13)  7.656216E-03  4.750926E-04  3.197701E-03  3.160253E-02
        99 0001-01-01 08:15:00.00  2.405180E-05  6.585678E+02  6.585678E+02  3.884375E+11
                       (17,01,13)  7.785288E-03  4.824227E-04  3.240948E-03  3.209093E-02
       100 0001-01-01 08:20:00.00  2.482396E-05  6.585678E+02  6.585678E+02  3.884375E+11
                       (30,01,13)  7.912804E-03  4.891474E-04  3.286566E-03  3.258172E-02
       101 0001-01-01 08:25:00.00  2.561108E-05  6.585678E+02  6.585678E+02  3.884375E+11
                       (02,01,13)  8.040986E-03  4.962769E-04  3.334751E-03  3.307481E-02
       102 0001-01-01 08:30:00.00  2.641321E-05  6.585678E+02  6.585679E+02  3.884375E+11
                       (17,01,13)  8.170523E-03  5.033700E-04  3.379861E-03  3.357047E-02
       103 0001-01-01 08:35:00.00  2.723048E-05  6.585678E+02  6.585678E+02  3.884375E+11
                       (17,01,13)  8.300402E-03  5.099531E-04  3.428254E-03  3.406842E-02
       104 0001-01-01 08:40:00.00  2.806279E-05  6.585678E+02  6.585678E+02  3.884375E+11
                       (27,01,12)  7.755487E-03  4.679813E-04  4.196898E-03  3.456813E-02
       105 0001-01-01 08:45:00.00  2.891041E-05  6.585677E+02  6.585677E+02  3.884375E+11
                       (27,01,12)  7.879537E-03  4.743810E-04  4.254152E-03  3.507066E-02
       106 0001-01-01 08:50:00.00  2.977318E-05  6.585677E+02  6.585678E+02  3.884375E+11
                       (17,01,12)  8.006158E-03  4.809144E-04  4.308046E-03  3.557462E-02
       107 0001-01-01 08:55:00.00  3.065125E-05  6.585678E+02  6.585678E+02  3.884375E+11
                       (27,01,12)  8.129407E-03  4.873141E-04  4.369164E-03  3.608160E-02
       108 0001-01-01 09:00:00.00  3.154459E-05  6.585677E+02  6.585678E+02  3.884375E+11
                       (27,01,12)  8.255337E-03  4.936912E-04  4.422196E-03  3.659021E-02
       109 0001-01-01 09:05:00.00  3.245333E-05  6.585677E+02  6.585678E+02  3.884375E+11
                       (27,01,12)  8.382035E-03  5.003510E-04  4.479229E-03  3.710187E-02
       110 0001-01-01 09:10:00.00  3.337742E-05  6.585678E+02  6.585678E+02  3.884375E+11
                       (17,01,12)  8.511513E-03  5.067868E-04  4.537344E-03  3.761506E-02
       111 0001-01-01 09:15:00.00  3.431695E-05  6.585677E+02  6.585678E+02  3.884375E+11
                       (27,01,12)  8.637334E-03  5.129842E-04  4.592167E-03  3.812988E-02
       112 0001-01-01 09:20:00.00  3.527191E-05  6.585677E+02  6.585678E+02  3.884375E+11
                       (17,01,12)  8.768032E-03  5.198580E-04  4.651167E-03  3.864788E-02
       113 0001-01-01 09:25:00.00  3.624233E-05  6.585677E+02  6.585678E+02  3.884375E+11
                       (17,01,12)  8.897191E-03  5.260921E-04  4.707114E-03  3.916708E-02
       114 0001-01-01 09:30:00.00  3.722827E-05  6.585678E+02  6.585678E+02  3.884375E+11
                       (01,01,12)  9.025822E-03  5.321754E-04  4.763903E-03  3.968849E-02
       115 0001-01-01 09:35:00.00  3.822972E-05  6.585677E+02  6.585678E+02  3.884375E+11
                       (17,01,12)  9.157391E-03  5.389295E-04  4.818294E-03  4.021202E-02
       116 0001-01-01 09:40:00.00  3.924671E-05  6.585677E+02  6.585678E+02  3.884375E+11
                       (01,01,12)  9.287316E-03  5.451354E-04  4.875904E-03  4.073792E-02
       117 0001-01-01 09:45:00.00  4.027930E-05  6.585677E+02  6.585677E+02  3.884375E+11
                       (01,01,12)  9.418912E-03  5.517902E-04  4.935250E-03  4.126563E-02
       118 0001-01-01 09:50:00.00  4.132741E-05  6.585677E+02  6.585678E+02  3.884375E+11
                       (17,01,12)  9.552507E-03  5.584834E-04  4.991561E-03  4.179546E-02
       119 0001-01-01 09:55:00.00  4.239117E-05  6.585678E+02  6.585678E+02  3.884375E+11
                       (01,01,12)  9.684098E-03  5.647840E-04  5.049210E-03  4.232670E-02
       120 0001-01-01 10:00:00.00  4.347053E-05  6.585678E+02  6.585678E+02  3.884375E+11
                       (01,01,12)  9.817587E-03  5.712361E-04  5.109351E-03  4.286037E-02
       121 0001-01-01 10:05:00.00  4.456551E-05  6.585677E+02  6.585678E+02  3.884375E+11
                       (01,01,12)  9.951846E-03  5.776996E-04  5.165668E-03  4.339589E-02
       122 0001-01-01 10:10:00.00  4.567616E-05  6.585678E+02  6.585678E+02  3.884375E+11
                       (01,01,12)  1.008648E-02  5.842799E-04  5.223050E-03  4.393336E-02
       123 0001-01-01 10:15:00.00  4.680249E-05  6.585677E+02  6.585678E+02  3.884375E+11
                       (01,01,12)  1.022179E-02  5.906067E-04  5.279914E-03  4.447253E-02
       124 0001-01-01 10:20:00.00  4.794444E-05  6.585677E+02  6.585678E+02  3.884375E+11
                       (01,01,12)  1.035774E-02  5.970728E-04  5.333099E-03  4.501345E-02
       125 0001-01-01 10:25:00.00  4.910208E-05  6.585678E+02  6.585678E+02  3.884375E+11
                       (16,01,12)  1.049547E-02  6.040761E-04  5.389581E-03  4.555733E-02
       126 0001-01-01 10:30:00.00  5.027537E-05  6.585678E+02  6.585679E+02  3.884375E+11
                       (28,01,12)  1.063106E-02  6.102189E-04  5.448635E-03  4.610196E-02
       127 0001-01-01 10:35:00.00  5.146428E-05  6.585677E+02  6.585678E+02  3.884375E+11
                       (35,01,12)  1.076789E-02  6.170382E-04  5.509664E-03  4.664919E-02
       128 0001-01-01 10:40:00.00  5.266892E-05  6.585677E+02  6.585678E+02  3.884375E+11
                       (16,01,12)  1.090800E-02  6.237658E-04  5.566765E-03  4.719713E-02
       129 0001-01-01 10:45:00.00  5.388921E-05  6.585677E+02  6.585677E+02  3.884375E+11
                       (28,01,12)  1.104536E-02  6.299668E-04  5.624159E-03  4.774814E-02
       130 0001-01-01 10:50:00.00  5.512522E-05  6.585676E+02  6.585677E+02  3.884376E+11
                       (16,01,12)  1.118603E-02  6.368725E-04  5.680896E-03  4.830030E-02
       131 0001-01-01 10:55:00.00  5.637678E-05  6.585676E+02  6.585677E+02  3.884376E+11
                       (28,01,12)  1.132441E-02  6.434083E-04  5.739139E-03  4.885373E-02
       132 0001-01-01 11:00:00.00  5.764412E-05  6.585677E+02  6.585678E+02  3.884375E+11
                       (35,01,12)  1.146399E-02  6.500566E-04  5.799144E-03  4.941017E-02
       133 0001-01-01 11:05:00.00  5.892717E-05  6.585678E+02  6.585678E+02  3.884375E+11
                       (16,01,12)  1.160700E-02  6.566930E-04  5.856582E-03  4.996764E-02
       134 0001-01-01 11:10:00.00  6.022584E-05  6.585677E+02  6.585678E+02  3.884375E+11
                       (28,01,12)  1.174711E-02  6.630428E-04  5.915561E-03  5.052726E-02
       135 0001-01-01 11:15:00.00  6.154017E-05  6.585678E+02  6.585678E+02  3.884375E+11
                       (16,01,12)  1.189038E-02  6.698720E-04  5.970332E-03  5.108808E-02
       136 0001-01-01 11:20:00.00  6.287029E-05  6.585677E+02  6.585678E+02  3.884375E+11
                       (28,01,12)  1.203158E-02  6.763767E-04  6.027497E-03  5.165095E-02
       137 0001-01-01 11:25:00.00  6.421599E-05  6.585677E+02  6.585678E+02  3.884375E+11
                       (28,01,12)  1.217451E-02  6.828318E-04  6.088171E-03  5.221540E-02
       138 0001-01-01 11:30:00.00  6.557737E-05  6.585678E+02  6.585678E+02  3.884375E+11
                       (16,01,12)  1.231940E-02  6.899789E-04  6.143884E-03  5.278144E-02
       139 0001-01-01 11:35:00.00  6.695450E-05  6.585678E+02  6.585678E+02  3.884375E+11
                       (16,01,12)  1.246339E-02  6.965527E-04  6.201212E-03  5.334920E-02
       140 0001-01-01 11:40:00.00  6.834727E-05  6.585678E+02  6.585678E+02  3.884375E+11
                       (16,01,12)  1.260794E-02  7.032877E-04  6.258511E-03  5.391872E-02
       141 0001-01-01 11:45:00.00  6.975574E-05  6.585678E+02  6.585679E+02  3.884375E+11
                       (16,01,12)  1.275291E-02  7.099323E-04  6.318258E-03  5.448945E-02
       142 0001-01-01 11:50:00.00  7.117980E-05  6.585678E+02  6.585679E+02  3.884375E+11
                       (28,01,12)  1.289718E-02  7.160991E-04  6.378009E-03  5.506216E-02
       143 0001-01-01 11:55:00.00  7.261962E-05  6.585677E+02  6.585678E+02  3.884375E+11
                       (41,01,12)  1.304234E-02  7.225871E-04  6.435407E-03  5.563582E-02
       144 0001-01-01 12:00:00.00  7.407509E-05  6.585677E+02  6.585678E+02  3.884375E+11
                       (16,01,12)  1.319095E-02  7.298338E-04  6.491890E-03  5.621190E-02
      WRT_HIS     - wrote history     fields (Index=1,1) in record = 0000003
      WRT_AVG     - wrote averaged    fields             in record = 0000002
      WRT_DIAGS   - wrote diagnostics fields             in record = 0000002
      WRT_RST     - wrote re-start    fields (Index=1,1) in record = 0000002
       145 0001-01-01 12:05:00.00  7.554627E-05  6.585677E+02  6.585678E+02  3.884375E+11
                       (26,01,12)  1.333460E-02  7.360253E-04  6.552739E-03  5.678949E-02
       146 0001-01-01 12:10:00.00  7.703315E-05  6.585677E+02  6.585678E+02  3.884375E+11
                       (16,01,12)  1.348545E-02  7.432931E-04  6.608452E-03  5.736802E-02
       147 0001-01-01 12:15:00.00  7.853568E-05  6.585677E+02  6.585678E+02  3.884375E+11
                       (04,01,12)  1.363199E-02  7.495854E-04  6.667568E-03  5.794857E-02
       148 0001-01-01 12:20:00.00  8.005393E-05  6.585677E+02  6.585678E+02  3.884375E+11
                       (26,01,12)  1.377856E-02  7.560077E-04  6.728125E-03  5.853051E-02
       149 0001-01-01 12:25:00.00  8.158789E-05  6.585677E+02  6.585678E+02  3.884375E+11
                       (14,01,12)  1.392932E-02  7.627633E-04  6.785447E-03  5.911385E-02
       150 0001-01-01 12:30:00.00  8.313753E-05  6.585677E+02  6.585678E+02  3.884375E+11
                       (14,01,12)  1.407864E-02  7.693804E-04  6.843823E-03  5.969902E-02
       151 0001-01-01 12:35:00.00  8.470295E-05  6.585677E+02  6.585678E+02  3.884375E+11
                       (14,01,12)  1.422849E-02  7.761949E-04  6.902793E-03  6.028535E-02
       152 0001-01-01 12:40:00.00  8.628404E-05  6.585677E+02  6.585678E+02  3.884375E+11
                       (15,01,12)  1.438030E-02  7.831433E-04  6.960174E-03  6.087302E-02
       153 0001-01-01 12:45:00.00  8.788089E-05  6.585677E+02  6.585678E+02  3.884375E+11
                       (15,01,12)  1.453104E-02  7.899266E-04  7.017945E-03  6.146249E-02
       154 0001-01-01 12:50:00.00  8.949358E-05  6.585677E+02  6.585678E+02  3.884375E+11
                       (14,01,12)  1.468078E-02  7.964110E-04  7.079822E-03  6.205291E-02
       155 0001-01-01 12:55:00.00  9.112200E-05  6.585677E+02  6.585678E+02  3.884375E+11
                       (14,01,12)  1.483248E-02  8.029498E-04  7.137230E-03  6.264528E-02
       156 0001-01-01 13:00:00.00  9.276621E-05  6.585677E+02  6.585677E+02  3.884375E+11
                       (15,01,12)  1.498613E-02  8.102251E-04  7.193808E-03  6.323912E-02
       157 0001-01-01 13:05:00.00  9.442624E-05  6.585676E+02  6.585677E+02  3.884375E+11
                       (01,01,12)  1.513739E-02  8.165285E-04  7.254843E-03  6.383337E-02
       158 0001-01-01 13:10:00.00  9.610202E-05  6.585675E+02  6.585676E+02  3.884375E+11
                       (15,01,12)  1.529164E-02  8.234793E-04  7.313761E-03  6.443049E-02
       159 0001-01-01 13:15:00.00  9.779376E-05  6.585676E+02  6.585677E+02  3.884375E+11
                       (01,01,12)  1.544368E-02  8.301200E-04  7.373849E-03  6.502774E-02
       160 0001-01-01 13:20:00.00  9.950131E-05  6.585676E+02  6.585677E+02  3.884375E+11
                       (01,01,12)  1.559747E-02  8.364464E-04  7.432045E-03  6.562679E-02
       161 0001-01-01 13:25:00.00  1.012249E-04  6.585676E+02  6.585677E+02  3.884375E+11
                       (17,01,12)  1.575242E-02  8.436426E-04  7.489168E-03  6.622722E-02
       162 0001-01-01 13:30:00.00  1.029643E-04  6.585676E+02  6.585677E+02  3.884375E+11
                       (15,01,12)  1.590771E-02  8.500114E-04  7.544490E-03  6.682860E-02
       163 0001-01-01 13:35:00.00  1.047197E-04  6.585677E+02  6.585678E+02  3.884375E+11
                       (17,01,12)  1.606193E-02  8.568742E-04  7.602599E-03  6.743224E-02
       164 0001-01-01 13:40:00.00  1.064912E-04  6.585677E+02  6.585678E+02  3.884375E+11
                       (15,01,12)  1.621842E-02  8.633300E-04  7.661020E-03  6.803624E-02
       165 0001-01-01 13:45:00.00  1.082786E-04  6.585677E+02  6.585678E+02  3.884375E+11
                       (17,01,12)  1.637359E-02  8.704235E-04  7.719439E-03  6.864230E-02
       166 0001-01-01 13:50:00.00  1.100822E-04  6.585677E+02  6.585678E+02  3.884375E+11
                       (14,01,12)  1.652957E-02  8.766683E-04  7.777819E-03  6.924947E-02
       167 0001-01-01 13:55:00.00  1.119020E-04  6.585676E+02  6.585678E+02  3.884375E+11
                       (17,01,12)  1.668631E-02  8.838210E-04  7.838170E-03  6.985710E-02
       168 0001-01-01 14:00:00.00  1.137378E-04  6.585676E+02  6.585678E+02  3.884375E+11
                       (14,01,12)  1.684329E-02  8.901518E-04  7.895270E-03  7.046698E-02
       169 0001-01-01 14:05:00.00  1.155899E-04  6.585677E+02  6.585678E+02  3.884375E+11
                       (14,01,12)  1.700088E-02  8.967604E-04  7.956086E-03  7.107731E-02
       170 0001-01-01 14:10:00.00  1.174583E-04  6.585676E+02  6.585677E+02  3.884375E+11
                       (14,01,12)  1.715894E-02  9.035671E-04  8.011392E-03  7.168897E-02
       171 0001-01-01 14:15:00.00  1.193430E-04  6.585677E+02  6.585678E+02  3.884375E+11
                       (15,01,12)  1.731842E-02  9.104495E-04  8.069236E-03  7.230259E-02
       172 0001-01-01 14:20:00.00  1.212442E-04  6.585677E+02  6.585678E+02  3.884375E+11
                       (14,01,12)  1.747576E-02  9.169789E-04  8.128993E-03  7.291660E-02
       173 0001-01-01 14:25:00.00  1.231617E-04  6.585677E+02  6.585678E+02  3.884375E+11
                       (15,01,12)  1.763606E-02  9.238672E-04  8.187008E-03  7.353190E-02
       174 0001-01-01 14:30:00.00  1.250957E-04  6.585677E+02  6.585678E+02  3.884375E+11
                       (14,01,12)  1.779425E-02  9.302439E-04  8.248813E-03  7.414902E-02
       175 0001-01-01 14:35:00.00  1.270464E-04  6.585677E+02  6.585678E+02  3.884375E+11
                       (14,01,12)  1.795388E-02  9.371095E-04  8.305655E-03  7.476699E-02
       176 0001-01-01 14:40:00.00  1.290137E-04  6.585676E+02  6.585678E+02  3.884375E+11
                       (14,01,12)  1.811430E-02  9.438128E-04  8.365042E-03  7.538589E-02
       177 0001-01-01 14:45:00.00  1.309978E-04  6.585676E+02  6.585677E+02  3.884375E+11
                       (14,01,12)  1.827500E-02  9.501946E-04  8.423924E-03  7.600524E-02
       178 0001-01-01 14:50:00.00  1.329986E-04  6.585676E+02  6.585677E+02  3.884375E+11
                       (14,01,12)  1.843557E-02  9.568551E-04  8.477445E-03  7.662662E-02
       179 0001-01-01 14:55:00.00  1.350163E-04  6.585677E+02  6.585678E+02  3.884375E+11
                       (15,01,12)  1.859833E-02  9.637504E-04  8.535122E-03  7.724919E-02
       180 0001-01-01 15:00:00.00  1.370511E-04  6.585676E+02  6.585678E+02  3.884375E+11
                       (15,01,12)  1.876002E-02  9.705792E-04  8.591027E-03  7.787270E-02
       181 0001-01-01 15:05:00.00  1.391030E-04  6.585677E+02  6.585679E+02  3.884375E+11
                       (15,01,12)  1.892189E-02  9.771895E-04  8.652688E-03  7.849673E-02
       182 0001-01-01 15:10:00.00  1.411719E-04  6.585677E+02  6.585678E+02  3.884375E+11
                       (15,01,12)  1.908411E-02  9.836748E-04  8.709416E-03  7.912184E-02
       183 0001-01-01 15:15:00.00  1.432580E-04  6.585676E+02  6.585677E+02  3.884375E+11
                       (15,01,12)  1.924663E-02  9.903957E-04  8.767470E-03  7.974797E-02
       184 0001-01-01 15:20:00.00  1.453616E-04  6.585676E+02  6.585678E+02  3.884375E+11
                       (15,01,12)  1.940960E-02  9.968360E-04  8.825876E-03  8.037516E-02
       185 0001-01-01 15:25:00.00  1.474825E-04  6.585676E+02  6.585678E+02  3.884375E+11
                       (15,01,12)  1.957290E-02  1.003456E-03  8.880983E-03  8.100387E-02
       186 0001-01-01 15:30:00.00  1.496210E-04  6.585677E+02  6.585678E+02  3.884375E+11
                       (15,01,12)  1.973654E-02  1.010263E-03  8.938289E-03  8.163317E-02
       187 0001-01-01 15:35:00.00  1.517770E-04  6.585676E+02  6.585677E+02  3.884375E+11
                       (15,01,12)  1.990053E-02  1.016823E-03  8.994498E-03  8.226398E-02
       188 0001-01-01 15:40:00.00  1.539509E-04  6.585676E+02  6.585678E+02  3.884376E+11
                       (15,01,12)  2.006497E-02  1.023202E-03  9.053306E-03  8.289576E-02
       189 0001-01-01 15:45:00.00  1.561426E-04  6.585676E+02  6.585678E+02  3.884375E+11
                       (15,01,12)  2.022928E-02  1.029765E-03  9.109686E-03  8.352723E-02
       190 0001-01-01 15:50:00.00  1.583524E-04  6.585676E+02  6.585678E+02  3.884375E+11
                       (14,01,12)  2.039364E-02  1.036058E-03  9.166487E-03  8.416158E-02
       191 0001-01-01 15:55:00.00  1.605803E-04  6.585677E+02  6.585678E+02  3.884375E+11
                       (15,01,12)  2.055942E-02  1.042701E-03  9.222236E-03  8.479472E-02
       192 0001-01-01 16:00:00.00  1.628263E-04  6.585677E+02  6.585679E+02  3.884375E+11
                       (30,01,12)  2.072460E-02  1.049215E-03  9.279035E-03  8.543117E-02
       193 0001-01-01 16:05:00.00  1.650908E-04  6.585677E+02  6.585678E+02  3.884375E+11
                       (15,01,12)  2.089100E-02  1.055714E-03  9.335587E-03  8.606671E-02
       194 0001-01-01 16:10:00.00  1.673737E-04  6.585677E+02  6.585678E+02  3.884375E+11
                       (30,01,12)  2.105677E-02  1.062284E-03  9.393130E-03  8.670484E-02
       195 0001-01-01 16:15:00.00  1.696752E-04  6.585676E+02  6.585678E+02  3.884375E+11
                       (14,01,12)  2.122330E-02  1.068830E-03  9.451171E-03  8.734237E-02
       196 0001-01-01 16:20:00.00  1.719955E-04  6.585676E+02  6.585678E+02  3.884375E+11
                       (14,01,12)  2.139003E-02  1.075367E-03  9.507245E-03  8.798092E-02
       197 0001-01-01 16:25:00.00  1.743346E-04  6.585676E+02  6.585678E+02  3.884375E+11
                       (30,01,12)  2.155694E-02  1.082150E-03  9.560977E-03  8.862154E-02
       198 0001-01-01 16:30:00.00  1.766929E-04  6.585676E+02  6.585678E+02  3.884375E+11
                       (14,01,12)  2.172466E-02  1.088499E-03  9.621038E-03  8.926242E-02
       199 0001-01-01 16:35:00.00  1.790703E-04  6.585677E+02  6.585678E+02  3.884375E+11
                       (14,01,12)  2.189241E-02  1.094618E-03  9.678725E-03  8.990240E-02
       200 0001-01-01 16:40:00.00  1.814671E-04  6.585676E+02  6.585678E+02  3.884375E+11
                       (30,01,12)  2.206007E-02  1.101570E-03  9.733199E-03  9.054540E-02
       201 0001-01-01 16:45:00.00  1.838835E-04  6.585676E+02  6.585678E+02  3.884375E+11
                       (30,01,12)  2.222815E-02  1.108124E-03  9.787648E-03  9.118875E-02
       202 0001-01-01 16:50:00.00  1.863194E-04  6.585676E+02  6.585678E+02  3.884375E+11
                       (30,01,12)  2.239668E-02  1.114462E-03  9.842699E-03  9.183230E-02
       203 0001-01-01 16:55:00.00  1.887751E-04  6.585677E+02  6.585679E+02  3.884375E+11
                       (30,01,12)  2.256532E-02  1.120867E-03  9.899811E-03  9.247760E-02
       204 0001-01-01 17:00:00.00  1.912508E-04  6.585677E+02  6.585679E+02  3.884375E+11
                       (18,01,12)  2.273299E-02  1.127450E-03  9.959036E-03  9.312260E-02
       205 0001-01-01 17:05:00.00  1.937467E-04  6.585677E+02  6.585679E+02  3.884375E+11
                       (27,01,12)  2.290276E-02  1.132972E-03  1.001160E-02  9.376991E-02
       206 0001-01-01 17:10:00.00  1.962630E-04  6.585677E+02  6.585679E+02  3.884375E+11
                       (18,01,12)  2.307192E-02  1.140296E-03  1.006686E-02  9.441657E-02
       207 0001-01-01 17:15:00.00  1.987997E-04  6.585676E+02  6.585678E+02  3.884375E+11
                       (18,01,12)  2.324188E-02  1.146576E-03  1.012342E-02  9.506471E-02
       208 0001-01-01 17:20:00.00  2.013570E-04  6.585676E+02  6.585678E+02  3.884375E+11
                       (02,01,12)  2.341326E-02  1.152707E-03  1.017560E-02  9.571338E-02
       209 0001-01-01 17:25:00.00  2.039352E-04  6.585676E+02  6.585678E+02  3.884375E+11
                       (02,01,12)  2.358364E-02  1.159183E-03  1.023350E-02  9.636299E-02
       210 0001-01-01 17:30:00.00  2.065345E-04  6.585676E+02  6.585678E+02  3.884375E+11
                       (02,01,12)  2.375400E-02  1.165369E-03  1.028822E-02  9.701373E-02
       211 0001-01-01 17:35:00.00  2.091550E-04  6.585676E+02  6.585678E+02  3.884375E+11
                       (02,01,12)  2.392512E-02  1.171886E-03  1.034277E-02  9.766494E-02
       212 0001-01-01 17:40:00.00  2.117968E-04  6.585676E+02  6.585678E+02  3.884375E+11
                       (14,01,12)  2.409724E-02  1.177815E-03  1.039966E-02  9.831672E-02
       213 0001-01-01 17:45:00.00  2.144602E-04  6.585677E+02  6.585679E+02  3.884375E+11
                       (14,01,12)  2.426863E-02  1.184002E-03  1.045278E-02  9.896920E-02
       214 0001-01-01 17:50:00.00  2.171455E-04  6.585677E+02  6.585679E+02  3.884375E+11
                       (12,01,12)  2.443761E-02  1.190005E-03  1.050903E-02  9.962233E-02
       215 0001-01-01 17:55:00.00  2.198526E-04  6.585676E+02  6.585679E+02  3.884375E+11
                       (14,01,12)  2.461218E-02  1.197055E-03  1.056238E-02  1.002771E-01
       216 0001-01-01 18:00:00.00  2.225820E-04  6.585677E+02  6.585679E+02  3.884375E+11
                       (14,01,12)  2.478432E-02  1.203009E-03  1.062093E-02  1.009301E-01
      WRT_HIS     - wrote history     fields (Index=1,1) in record = 0000004
      WRT_AVG     - wrote averaged    fields             in record = 0000003
      WRT_DIAGS   - wrote diagnostics fields             in record = 0000003
      WRT_RST     - wrote re-start    fields (Index=1,1) in record = 0000001
       217 0001-01-01 18:05:00.00  2.253336E-04  6.585677E+02  6.585679E+02  3.884375E+11
                       (13,01,12)  2.495577E-02  1.208850E-03  1.067293E-02  1.015854E-01
       218 0001-01-01 18:10:00.00  2.281080E-04  6.585677E+02  6.585679E+02  3.884375E+11
                       (14,01,12)  2.512913E-02  1.215438E-03  1.072739E-02  1.022417E-01
       219 0001-01-01 18:15:00.00  2.309050E-04  6.585677E+02  6.585679E+02  3.884375E+11
                       (15,01,12)  2.530230E-02  1.221982E-03  1.077791E-02  1.028987E-01
       220 0001-01-01 18:20:00.00  2.337251E-04  6.585677E+02  6.585679E+02  3.884375E+11
                       (14,01,12)  2.547509E-02  1.227935E-03  1.083599E-02  1.035555E-01
       221 0001-01-01 18:25:00.00  2.365684E-04  6.585677E+02  6.585679E+02  3.884375E+11
                       (29,01,12)  2.564792E-02  1.234414E-03  1.088783E-02  1.042130E-01
       222 0001-01-01 18:30:00.00  2.394350E-04  6.585677E+02  6.585679E+02  3.884375E+11
                       (14,01,12)  2.582177E-02  1.240093E-03  1.094262E-02  1.048712E-01
       223 0001-01-01 18:35:00.00  2.423253E-04  6.585676E+02  6.585679E+02  3.884375E+11
                       (13,01,12)  2.599447E-02  1.246490E-03  1.099880E-02  1.055302E-01
       224 0001-01-01 18:40:00.00  2.452393E-04  6.585677E+02  6.585679E+02  3.884375E+11
                       (13,01,12)  2.616840E-02  1.252692E-03  1.104989E-02  1.061904E-01
       225 0001-01-01 18:45:00.00  2.481775E-04  6.585677E+02  6.585679E+02  3.884375E+11
                       (13,01,12)  2.634245E-02  1.258688E-03  1.110582E-02  1.068509E-01
       226 0001-01-01 18:50:00.00  2.511398E-04  6.585677E+02  6.585679E+02  3.884375E+11
                       (13,01,12)  2.651716E-02  1.264526E-03  1.115685E-02  1.075099E-01
       227 0001-01-01 18:55:00.00  2.541267E-04  6.585677E+02  6.585679E+02  3.884375E+11
                       (29,01,12)  2.669216E-02  1.270767E-03  1.120744E-02  1.081719E-01
       228 0001-01-01 19:00:00.00  2.571381E-04  6.585677E+02  6.585680E+02  3.884375E+11
                       (14,01,12)  2.686730E-02  1.276678E-03  1.125988E-02  1.088338E-01
       229 0001-01-01 19:05:00.00  2.601747E-04  6.585676E+02  6.585679E+02  3.884375E+11
                       (13,01,12)  2.704117E-02  1.282735E-03  1.131372E-02  1.094957E-01
       230 0001-01-01 19:10:00.00  2.632362E-04  6.585676E+02  6.585679E+02  3.884375E+11
                       (29,01,12)  2.721705E-02  1.288828E-03  1.136500E-02  1.101583E-01
       231 0001-01-01 19:15:00.00  2.663231E-04  6.585677E+02  6.585679E+02  3.884375E+11
                       (13,01,12)  2.739180E-02  1.294763E-03  1.141390E-02  1.108212E-01
       232 0001-01-01 19:20:00.00  2.694358E-04  6.585676E+02  6.585679E+02  3.884375E+11
                       (13,01,12)  2.756706E-02  1.300599E-03  1.147159E-02  1.114856E-01
       233 0001-01-01 19:25:00.00  2.725742E-04  6.585677E+02  6.585680E+02  3.884375E+11
                       (29,01,12)  2.774355E-02  1.306881E-03  1.151975E-02  1.121496E-01
       234 0001-01-01 19:30:00.00  2.757386E-04  6.585677E+02  6.585680E+02  3.884375E+11
                       (29,01,12)  2.791941E-02  1.312800E-03  1.157216E-02  1.128140E-01
       235 0001-01-01 19:35:00.00  2.789292E-04  6.585677E+02  6.585680E+02  3.884375E+11
                       (13,01,12)  2.809458E-02  1.318049E-03  1.162320E-02  1.134791E-01
       236 0001-01-01 19:40:00.00  2.821464E-04  6.585677E+02  6.585680E+02  3.884375E+11
                       (07,01,12)  2.826777E-02  1.324284E-03  1.167482E-02  1.141444E-01
       237 0001-01-01 19:45:00.00  2.853902E-04  6.585676E+02  6.585679E+02  3.884375E+11
                       (31,01,12)  2.844651E-02  1.330361E-03  1.172400E-02  1.148110E-01
       238 0001-01-01 19:50:00.00  2.886611E-04  6.585676E+02  6.585679E+02  3.884375E+11
                       (29,01,12)  2.862432E-02  1.335945E-03  1.177591E-02  1.154754E-01
       239 0001-01-01 19:55:00.00  2.919591E-04  6.585677E+02  6.585680E+02  3.884375E+11
                       (31,01,12)  2.879984E-02  1.341933E-03  1.182806E-02  1.161444E-01
       240 0001-01-01 20:00:00.00  2.952846E-04  6.585677E+02  6.585680E+02  3.884375E+11
                       (14,01,12)  2.897823E-02  1.347423E-03  1.187501E-02  1.168100E-01
       241 0001-01-01 20:05:00.00  2.986377E-04  6.585678E+02  6.585681E+02  3.884375E+11
                       (31,01,12)  2.915389E-02  1.353819E-03  1.192868E-02  1.174783E-01
       242 0001-01-01 20:10:00.00  3.020186E-04  6.585677E+02  6.585680E+02  3.884375E+11
                       (31,01,12)  2.933089E-02  1.359509E-03  1.197849E-02  1.181472E-01
       243 0001-01-01 20:15:00.00  3.054276E-04  6.585676E+02  6.585679E+02  3.884375E+11
                       (31,01,12)  2.950826E-02  1.365241E-03  1.202877E-02  1.188154E-01
       244 0001-01-01 20:20:00.00  3.088649E-04  6.585676E+02  6.585679E+02  3.884375E+11
                       (14,01,12)  2.968763E-02  1.370521E-03  1.207800E-02  1.194843E-01
       245 0001-01-01 20:25:00.00  3.123308E-04  6.585677E+02  6.585680E+02  3.884375E+11
                       (31,01,12)  2.986358E-02  1.376792E-03  1.213105E-02  1.201527E-01
       246 0001-01-01 20:30:00.00  3.158255E-04  6.585677E+02  6.585680E+02  3.884375E+11
                       (31,01,12)  3.004139E-02  1.382292E-03  1.217939E-02  1.208226E-01
       247 0001-01-01 20:35:00.00  3.193491E-04  6.585677E+02  6.585680E+02  3.884375E+11
                       (31,01,12)  3.021951E-02  1.387919E-03  1.222748E-02  1.214929E-01
       248 0001-01-01 20:40:00.00  3.229020E-04  6.585677E+02  6.585680E+02  3.884375E+11
                       (14,01,12)  3.039910E-02  1.393290E-03  1.227301E-02  1.221628E-01
       249 0001-01-01 20:45:00.00  3.264842E-04  6.585676E+02  6.585680E+02  3.884375E+11
                       (31,01,12)  3.057588E-02  1.398918E-03  1.232665E-02  1.228330E-01
       250 0001-01-01 20:50:00.00  3.300962E-04  6.585677E+02  6.585680E+02  3.884375E+11
                       (31,01,12)  3.075427E-02  1.404448E-03  1.237106E-02  1.235047E-01
       251 0001-01-01 20:55:00.00  3.337382E-04  6.585677E+02  6.585680E+02  3.884375E+11
                       (13,01,12)  3.093298E-02  1.409436E-03  1.242174E-02  1.241755E-01
       252 0001-01-01 21:00:00.00  3.374104E-04  6.585676E+02  6.585680E+02  3.884375E+11
                       (14,01,12)  3.111291E-02  1.415463E-03  1.246899E-02  1.248473E-01
       253 0001-01-01 21:05:00.00  3.411129E-04  6.585677E+02  6.585681E+02  3.884375E+11
                       (13,01,12)  3.129052E-02  1.420658E-03  1.251543E-02  1.255178E-01
       254 0001-01-01 21:10:00.00  3.448459E-04  6.585677E+02  6.585681E+02  3.884375E+11
                       (13,01,12)  3.146928E-02  1.426160E-03  1.256256E-02  1.261898E-01
       255 0001-01-01 21:15:00.00  3.486097E-04  6.585677E+02  6.585680E+02  3.884375E+11
                       (41,01,12)  3.164731E-02  1.432005E-03  1.261281E-02  1.268625E-01
       256 0001-01-01 21:20:00.00  3.524045E-04  6.585676E+02  6.585680E+02  3.884375E+11
                       (14,01,12)  3.182837E-02  1.437249E-03  1.266037E-02  1.275345E-01
       257 0001-01-01 21:25:00.00  3.562307E-04  6.585677E+02  6.585680E+02  3.884375E+11
                       (41,01,12)  3.200579E-02  1.442949E-03  1.270766E-02  1.282071E-01
       258 0001-01-01 21:30:00.00  3.600882E-04  6.585677E+02  6.585680E+02  3.884375E+11
                       (41,01,12)  3.218516E-02  1.448232E-03  1.275812E-02  1.288806E-01
       259 0001-01-01 21:35:00.00  3.639774E-04  6.585677E+02  6.585680E+02  3.884375E+11
                       (41,01,12)  3.236452E-02  1.453588E-03  1.280509E-02  1.295536E-01
       260 0001-01-01 21:40:00.00  3.678984E-04  6.585677E+02  6.585681E+02  3.884375E+11
                       (41,01,12)  3.254416E-02  1.458873E-03  1.285092E-02  1.302273E-01
       261 0001-01-01 21:45:00.00  3.718515E-04  6.585678E+02  6.585681E+02  3.884375E+11
                       (14,01,12)  3.272562E-02  1.464405E-03  1.289663E-02  1.309003E-01
       262 0001-01-01 21:50:00.00  3.758367E-04  6.585676E+02  6.585680E+02  3.884375E+11
                       (41,01,12)  3.290359E-02  1.469342E-03  1.294260E-02  1.315752E-01
       263 0001-01-01 21:55:00.00  3.798546E-04  6.585676E+02  6.585680E+02  3.884375E+11
                       (13,01,12)  3.308418E-02  1.474826E-03  1.298998E-02  1.322479E-01
       264 0001-01-01 22:00:00.00  3.839052E-04  6.585677E+02  6.585680E+02  3.884375E+11
                       (14,01,12)  3.326522E-02  1.480105E-03  1.303065E-02  1.329224E-01
       265 0001-01-01 22:05:00.00  3.879888E-04  6.585677E+02  6.585680E+02  3.884375E+11
                       (13,01,12)  3.344420E-02  1.485184E-03  1.307838E-02  1.335955E-01
       266 0001-01-01 22:10:00.00  3.921054E-04  6.585677E+02  6.585681E+02  3.884375E+11
                       (28,01,12)  3.362433E-02  1.490099E-03  1.312226E-02  1.342703E-01
       267 0001-01-01 22:15:00.00  3.962552E-04  6.585677E+02  6.585681E+02  3.884375E+11
                       (14,01,12)  3.380550E-02  1.495647E-03  1.316862E-02  1.349447E-01
       268 0001-01-01 22:20:00.00  4.004385E-04  6.585676E+02  6.585680E+02  3.884375E+11
                       (13,01,12)  3.398471E-02  1.500644E-03  1.321336E-02  1.356193E-01
       269 0001-01-01 22:25:00.00  4.046557E-04  6.585677E+02  6.585681E+02  3.884375E+11
                       (08,01,12)  3.416181E-02  1.505971E-03  1.326049E-02  1.362943E-01
       270 0001-01-01 22:30:00.00  4.089066E-04  6.585676E+02  6.585681E+02  3.884375E+11
                       (14,01,12)  3.434639E-02  1.510905E-03  1.330216E-02  1.369682E-01
       271 0001-01-01 22:35:00.00  4.131915E-04  6.585676E+02  6.585681E+02  3.884375E+11
                       (13,01,12)  3.452634E-02  1.516065E-03  1.334552E-02  1.376433E-01
       272 0001-01-01 22:40:00.00  4.175108E-04  6.585677E+02  6.585681E+02  3.884375E+11
                       (13,01,12)  3.470690E-02  1.521376E-03  1.338784E-02  1.383184E-01
       273 0001-01-01 22:45:00.00  4.218643E-04  6.585677E+02  6.585681E+02  3.884375E+11
                       (13,01,12)  3.488762E-02  1.526262E-03  1.343644E-02  1.389931E-01
       274 0001-01-01 22:50:00.00  4.262524E-04  6.585676E+02  6.585681E+02  3.884375E+11
                       (40,01,12)  3.506672E-02  1.530831E-03  1.348111E-02  1.396678E-01
       275 0001-01-01 22:55:00.00  4.306753E-04  6.585676E+02  6.585680E+02  3.884376E+11
                       (40,01,12)  3.524744E-02  1.535974E-03  1.352303E-02  1.403426E-01
       276 0001-01-01 23:00:00.00  4.351334E-04  6.585676E+02  6.585681E+02  3.884375E+11
                       (01,01,12)  3.542940E-02  1.541234E-03  1.356540E-02  1.410184E-01
       277 0001-01-01 23:05:00.00  4.396263E-04  6.585676E+02  6.585681E+02  3.884375E+11
                       (40,01,12)  3.560920E-02  1.545833E-03  1.361291E-02  1.416922E-01
       278 0001-01-01 23:10:00.00  4.441547E-04  6.585677E+02  6.585681E+02  3.884375E+11
                       (12,01,12)  3.579049E-02  1.551037E-03  1.365613E-02  1.423684E-01
       279 0001-01-01 23:15:00.00  4.487183E-04  6.585676E+02  6.585681E+02  3.884376E+11
                       (12,01,12)  3.597214E-02  1.555866E-03  1.369780E-02  1.430433E-01
       280 0001-01-01 23:20:00.00  4.533177E-04  6.585677E+02  6.585681E+02  3.884375E+11
                       (01,01,12)  3.615306E-02  1.561188E-03  1.373965E-02  1.437195E-01
       281 0001-01-01 23:25:00.00  4.579526E-04  6.585677E+02  6.585681E+02  3.884375E+11
                       (12,01,12)  3.633434E-02  1.565613E-03  1.378714E-02  1.443944E-01
       282 0001-01-01 23:30:00.00  4.626236E-04  6.585677E+02  6.585682E+02  3.884375E+11
                       (01,01,12)  3.651537E-02  1.570979E-03  1.383069E-02  1.450700E-01
       283 0001-01-01 23:35:00.00  4.673305E-04  6.585677E+02  6.585682E+02  3.884375E+11
                       (12,01,12)  3.669661E-02  1.575281E-03  1.386928E-02  1.457445E-01
       284 0001-01-01 23:40:00.00  4.720736E-04  6.585676E+02  6.585681E+02  3.884376E+11
                       (01,01,12)  3.687794E-02  1.580541E-03  1.391291E-02  1.464203E-01
       285 0001-01-01 23:45:00.00  4.768529E-04  6.585677E+02  6.585682E+02  3.884375E+11
                       (12,01,12)  3.705913E-02  1.585013E-03  1.395189E-02  1.470960E-01
       286 0001-01-01 23:50:00.00  4.816686E-04  6.585677E+02  6.585682E+02  3.884375E+11
                       (12,01,12)  3.724047E-02  1.589630E-03  1.399568E-02  1.477706E-01
       287 0001-01-01 23:55:00.00  4.865211E-04  6.585677E+02  6.585682E+02  3.884375E+11
                       (12,01,12)  3.742181E-02  1.594264E-03  1.403463E-02  1.484458E-01
       288 0001-01-02 00:00:00.00  4.914101E-04  6.585677E+02  6.585682E+02  3.884375E+11
                       (12,01,12)  3.760304E-02  1.599061E-03  1.407409E-02  1.491206E-01
      WRT_HIS     - wrote history     fields (Index=1,1) in record = 0000005
      WRT_AVG     - wrote averaged    fields             in record = 0000004
      WRT_DIAGS   - wrote diagnostics fields             in record = 0000004
      WRT_RST     - wrote re-start    fields (Index=1,1) in record = 0000002

 Elapsed CPU time (seconds):

 Thread #    0 CPU:      17.331
 Total:                  17.331

 Nonlinear model elapsed CPU time profile, Grid: 01

  Allocation and array initialization ..............         0.020  ( 0.1176 %)
  Ocean state initialization .......................         0.004  ( 0.0238 %)
  Reading of input data ............................         0.001  ( 0.0031 %)
  Processing of input data .........................         0.007  ( 0.0426 %)
  Processing of output time averaged data ..........         1.198  ( 6.9149 %)
  Computation of vertical boundary conditions ......         0.007  ( 0.0417 %)
  Computation of global information integrals ......         0.227  ( 1.3073 %)
  Writing of output data ...........................         0.119  ( 0.6869 %)
  Model 2D kernel ..................................         9.713  (56.0423 %)
  Lagrangian floats trajectories ...................         0.005  ( 0.0312 %)
  2D/3D coupling, vertical metrics .................         0.122  ( 0.7024 %)
  Omega vertical velocity ..........................         0.110  ( 0.6321 %)
  Equation of state for seawater ...................         0.075  ( 0.4333 %)
  3D equations right-side terms ....................         0.628  ( 3.6210 %)
  3D equations predictor step ......................         1.409  ( 8.1286 %)
  Pressure gradient ................................         0.357  ( 2.0615 %)
  Harmonic stress tensor, S-surfaces ...............         0.364  ( 2.0982 %)
  Corrector time-step for 3D momentum ..............         1.407  ( 8.1185 %)
  Corrector time-step for tracers ..................         0.963  ( 5.5558 %)
                                              Total:        16.735   96.5629

  Unique code regions profiled .....................        16.735   96.5629 %
  Residual, non-profiled code ......................         0.596    3.4371 %


 All percentages are with respect to total time =           17.331


>>>>>>>>>>>>>>>>>>>>>>>>>>>>>>>>>>>>>>>>>>>>>>>>>>>>>>>>>>>>>>>>>>>>>>>>>>>>>>>>

 Dynamic and Automatic memory (MB) usage for Grid 01:  41x80x16  tiling: 3x3

     tile          Dynamic        Automatic            USAGE

        0            34.91             0.48            35.39
        1             0.00             0.48             0.48
        2             0.00             0.48             0.48
        3             0.00             0.48             0.48
        4             0.00             0.48             0.48
        5             0.00             0.48             0.48
        6             0.00             0.48             0.48
        7             0.00             0.48             0.48
        8             0.00             0.48             0.48

    TOTAL            34.91             4.32            39.23

<<<<<<<<<<<<<<<<<<<<<<<<<<<<<<<<<<<<<<<<<<<<<<<<<<<<<<<<<<<<<<<<<<<<<<<<<<<<<<<<

 ROMS/TOMS - Output NetCDF summary for Grid 01:
             number of time records written in HISTORY file = 00000005
             number of time records written in RESTART file = 00000002
             number of time records written in AVERAGE file = 00000004
             number of time records written in STATION file = 00000289

 Analytical header files used:

     ROMS/Functionals/ana_drag.h
     ROMS/Functionals/ana_btflux.h
     ROMS/Functionals/ana_grid.h
     /home/hadfield/ROMS/roms-test-mgh/upwelling/ana_initial.h
     ROMS/Functionals/ana_smflux.h
     ROMS/Functionals/ana_stflux.h
     ROMS/Functionals/ana_vmix.h

 ROMS/TOMS: DONE... Thursday - February 7, 2019 -  3:33:00 PM
