--------------------------------------------------------------------------------
 Model Input Parameters:  ROMS/TOMS version 3.7  
                          Monday - June 10, 2019 -  4:28:39 PM
--------------------------------------------------------------------------------

 Wind-Driven Upwelling/Downwelling over a Periodic Channel

 Operating system : Linux
 CPU/hardware     : x86_64
 Compiler system  : gfortran
 Compiler command : /usr/bin/gfortran
 Compiler flags   : -frepack-arrays -O3 -ffast-math -

 Git Origin URL: git@github.com:hadfieldnz/roms-trunk-mgh.git
 Git Revision  : master commit bc913091be1509c638d46d012d01f02a37216703
 Git Status    : The working tree is clean

 Host Name     : niwa-1019320.niwa.local
 Local Root    : /home/hadfield/ROMS/roms-trunk-mgh
 Header Dir    : /home/hadfield/ROMS/roms-test-mgh/upwelling
 Header file   : upwelling.h
 Analytical Dir: /home/hadfield/ROMS/roms-test-mgh/upwelling

 Resolution, Grid 01: 41x80x16,  Parallel Threads: 1,  Tiling: 3x3


 Physical Parameters, Grid: 01
 =============================

        288  ntimes            Number of timesteps for 3-D equations.
    300.000  dt                Timestep size (s) for 3-D equations.
         30  ndtfast           Number of timesteps for 2-D equations between
                                 each 3D timestep.
          1  ERstr             Starting ensemble/perturbation run number.
          1  ERend             Ending ensemble/perturbation run number.
          0  nrrec             Number of restart records to read from disk.
          T  LcycleRST         Switch to recycle time-records in restart file.
         72  nRST              Number of timesteps between the writing of data
                                 into restart fields.
          1  ninfo             Number of timesteps between print of information
                                 to standard output.
          1  nSTA              Number of timesteps between the writing of data
                                 the stations file.
          1  nFLT              Number of timesteps between the writing of data
                                 into floats file.
          T  ldefout           Switch to create a new output NetCDF file(s).
         72  nHIS              Number of timesteps between the writing fields
                                 into history file.
          0  nQCK              Number of timesteps between the writing fields
                                 into quicksave file.
          1  ntsAVG            Starting timestep for the accumulation of output
                                 time-averaged data.
         72  nAVG              Number of timesteps between the writing of
                                 time-averaged data into averages file.
          1  ntsDIA            Starting timestep for the accumulation of output
                                 time-averaged diagnostics data.
         72  nDIA              Number of timesteps between the writing of
                                 time-averaged data into diagnostics file.
 0.0000E+00  nl_visc2          NLM Horizontal, harmonic mixing coefficient
                                 (m2/s) for momentum.
          F  LuvSponge         Turning OFF sponge on horizontal momentum.
          F  LtracerSponge(01) Turning OFF sponge on tracer 01: temp
          F  LtracerSponge(02) Turning OFF sponge on tracer 02: salt
 1.0000E-06  Akt_bak(01)       Background vertical mixing coefficient (m2/s)
                                 for tracer 01: temp
 1.0000E-06  Akt_bak(02)       Background vertical mixing coefficient (m2/s)
                                 for tracer 02: salt
 1.0000E-05  Akv_bak           Background vertical mixing coefficient (m2/s)
                                 for momentum.
 3.0000E-04  rdrg              Linear bottom drag coefficient (m/s).
 3.0000E-03  rdrg2             Quadratic bottom drag coefficient.
 2.0000E-02  Zob               Bottom roughness (m).
          2  Vtransform        S-coordinate transformation equation.
          4  Vstretching       S-coordinate stretching function.
 3.0000E+00  theta_s           S-coordinate surface control parameter.
 0.0000E+00  theta_b           S-coordinate bottom  control parameter.
     25.000  Tcline            S-coordinate surface/bottom layer width (m) used
                                 in vertical coordinate stretching.
   1025.000  rho0              Mean density (kg/m3) for Boussinesq approximation.
      0.000  dstart            Time-stamp assigned to model initialization (days).
       0.00  time_ref          Reference time for units attribute (yyyymmdd.dd)
 0.0000E+00  Tnudg(01)         Nudging/relaxation time scale (days)
                                 for tracer 01: temp
 0.0000E+00  Tnudg(02)         Nudging/relaxation time scale (days)
                                 for tracer 02: salt
 0.0000E+00  Znudg             Nudging/relaxation time scale (days)
                                 for free-surface.
 0.0000E+00  M2nudg            Nudging/relaxation time scale (days)
                                 for 2D momentum.
 0.0000E+00  M3nudg            Nudging/relaxation time scale (days)
                                 for 3D momentum.
 0.0000E+00  obcfac            Factor between passive and active
                                 open boundary conditions.
          F  VolCons(1)        NLM western  edge boundary volume conservation.
          F  VolCons(2)        NLM southern edge boundary volume conservation.
          F  VolCons(3)        NLM eastern  edge boundary volume conservation.
          F  VolCons(4)        NLM northern edge boundary volume conservation.
     14.000  T0                Background potential temperature (C) constant.
     35.000  S0                Background salinity (PSU) constant.
   1027.000  R0                Background density (kg/m3) used in linear Equation
                                 of State.
 1.7000E-04  Tcoef             Thermal expansion coefficient (1/Celsius).
 7.6000E-04  Scoef             Saline contraction coefficient (1/PSU).
      1.000  gamma2            Slipperiness variable: free-slip (1.0) or 
                                                      no-slip (-1.0).
          F  LuvSrc            Turning OFF momentum point Sources/Sinks.
          F  LwSrc             Turning OFF volume influx point Sources/Sinks.
          F  LtracerSrc(01)    Turning OFF point Sources/Sinks on tracer 01: temp
          F  LtracerSrc(02)    Turning OFF point Sources/Sinks on tracer 02: salt
          F  LsshCLM           Turning OFF processing of SSH climatology.
          F  Lm2CLM            Turning OFF processing of 2D momentum climatology.
          F  Lm3CLM            Turning OFF processing of 3D momentum climatology.
          F  LtracerCLM(01)    Turning OFF processing of climatology tracer 01: temp
          F  LtracerCLM(02)    Turning OFF processing of climatology tracer 02: salt
          F  LnudgeM2CLM       Turning OFF nudging of 2D momentum climatology.
          F  LnudgeM3CLM       Turning OFF nudging of 3D momentum climatology.
          F  LnudgeTCLM(01)    Turning OFF nudging of climatology tracer 01: temp
          F  LnudgeTCLM(02)    Turning OFF nudging of climatology tracer 02: salt

          T  Hout(idFsur)      Write out free-surface.
          T  Hout(idUbar)      Write out 2D U-momentum component.
          T  Hout(idVbar)      Write out 2D V-momentum component.
          T  Hout(idUvel)      Write out 3D U-momentum component.
          T  Hout(idVvel)      Write out 3D V-momentum component.
          T  Hout(idWvel)      Write out W-momentum component.
          T  Hout(idOvel)      Write out omega vertical velocity.
          T  Hout(idTvar)      Write out tracer 01: temp
          T  Hout(idTvar)      Write out tracer 02: salt
          T  Hout(idDano)      Write out density anomaly.

          T  Aout(idFsur)      Write out averaged free-surface.
          T  Aout(idUbar)      Write out averaged 2D U-momentum component.
          T  Aout(idVbar)      Write out averaged 2D V-momentum component.
          T  Aout(idUvel)      Write out averaged 3D U-momentum component.
          T  Aout(idVvel)      Write out averaged 3D V-momentum component.
          T  Aout(idWvel)      Write out averaged W-momentum component.
          T  Aout(idOvel)      Write out averaged omega vertical velocity.
          T  Aout(idTvar)      Write out averaged tracer 01: temp
          T  Aout(idTvar)      Write out averaged tracer 02: salt
          T  Aout(idDano)      Write out averaged density anomaly.

          T  Dout(M2rate)      Write out 2D momentum acceleration.
          T  Dout(M2pgrd)      Write out 2D momentum pressure gradient.
          T  Dout(M2fcor)      Write out 2D momentum Coriolis force.
          T  Dout(M2hadv)      Write out 2D momentum horizontal advection.
          T  Dout(M2xadv)      Write out 2D momentum horizontal X-advection.
          T  Dout(M2yadv)      Write out 2D momentum horizontal Y-advection.
          T  Dout(M2hvis)      Write out 2D momentum horizontal viscosity.
          T  Dout(M2xvis)      Write out 2D momentum horizontal X-viscosity.
          T  Dout(M2yvis)      Write out 2D momentum horizontal Y-viscosity.
          T  Dout(M2sstr)      Write out 2D momentum surface stress.
          T  Dout(M2bstr)      Write out 2D momentum bottom stress.

          T  Dout(M3rate)      Write out 3D momentum acceleration.
          T  Dout(M3pgrd)      Write out 3D momentum pressure gradient.
          T  Dout(M3fcor)      Write out 3D momentum Coriolis force.
          T  Dout(M3hadv)      Write out 3D momentum horizontal advection.
          T  Dout(M3xadv)      Write out 3D momentum horizontal X-advection.
          T  Dout(M3yadv)      Write out 3D momentum horizontal Y-advection.
          T  Dout(M3vadv)      Write out 3D momentum vertical advection.
          T  Dout(M3hvis)      Write out 3D momentum horizontal viscosity.
          T  Dout(M3xvis)      Write out 3D momentum horizontal X-viscosity.
          T  Dout(M3yvis)      Write out 3D momentum horizontal Y-viscosity.
          T  Dout(M3vvis)      Write out 3D momentum vertical viscosity.

          T  Dout(iTrate)      Write out rate of change of tracer 01: temp
          T  Dout(iTrate)      Write out rate of change of tracer 02: salt
          T  Dout(iThadv)      Write out horizontal advection, tracer 01: temp
          T  Dout(iThadv)      Write out horizontal advection, tracer 02: salt
          T  Dout(iTxadv)      Write out horizontal X-advection, tracer 01: temp
          T  Dout(iTxadv)      Write out horizontal X-advection, tracer 02: salt
          T  Dout(iTyadv)      Write out horizontal Y-advection, tracer 01: temp
          T  Dout(iTyadv)      Write out horizontal Y-advection, tracer 02: salt
          T  Dout(iTvadv)      Write out vertical advection, tracer 01: temp
          T  Dout(iTvadv)      Write out vertical advection, tracer 02: salt
          T  Dout(iTvdif)      Write out vertical diffusion, tracer 01: temp
          T  Dout(iTvdif)      Write out vertical diffusion, tracer 02: salt

 Output/Input Files:

             Output Restart File:  roms_rst.nc
             Output History File:  roms_his.nc
            Output Averages File:  roms_avg.nc
         Output Diagnostics File:  roms_dia.nc
            Output Stations File:  roms_sta.nc
              Output Floats File:  roms_flt.nc
          Station positions File:  stations.in
   Initial Floats Positions File:  floats_upwelling.in
         Biology Parameters File:  bio_Fennel.in

 Tile partition information for Grid 01:  41x80x16  tiling: 3x3

     tile     Istr     Iend     Jstr     Jend     Npts

        0        1       14        1       27     6048
        1       15       28        1       27     6048
        2       29       41        1       27     5616
        3        1       14       28       54     6048
        4       15       28       28       54     6048
        5       29       41       28       54     5616
        6        1       14       55       80     5824
        7       15       28       55       80     5824
        8       29       41       55       80     5408

 Tile minimum and maximum fractional coordinates for Grid 01:
   (interior points only)

     tile     Xmin     Xmax     Ymin     Ymax     grid

        0    -1.50    43.50     0.50    82.50  RHO-points
        1    -2.50    43.50     0.50    82.50  RHO-points
        2    -2.50    42.50     0.50    82.50  RHO-points
        3    -1.50    43.50    -0.50    82.50  RHO-points
        4    -2.50    43.50    -0.50    82.50  RHO-points
        5    -2.50    42.50    -0.50    82.50  RHO-points
        6    -1.50    43.50    -0.50    81.50  RHO-points
        7    -2.50    43.50    -0.50    81.50  RHO-points
        8    -2.50    42.50    -0.50    81.50  RHO-points

        0    -2.00    43.50     0.50    82.50    U-points
        1    -2.50    43.50     0.50    82.50    U-points
        2    -2.50    42.00     0.50    82.50    U-points
        3    -2.00    43.50    -0.50    82.50    U-points
        4    -2.50    43.50    -0.50    82.50    U-points
        5    -2.50    42.00    -0.50    82.50    U-points
        6    -2.00    43.50    -0.50    81.50    U-points
        7    -2.50    43.50    -0.50    81.50    U-points
        8    -2.50    42.00    -0.50    81.50    U-points

        0    -1.50    43.50     0.00    82.50    V-points
        1    -2.50    43.50     0.00    82.50    V-points
        2    -2.50    42.50     0.00    82.50    V-points
        3    -1.50    43.50    -0.50    82.50    V-points
        4    -2.50    43.50    -0.50    82.50    V-points
        5    -2.50    42.50    -0.50    82.50    V-points
        6    -1.50    43.50    -0.50    81.00    V-points
        7    -2.50    43.50    -0.50    81.00    V-points
        8    -2.50    42.50    -0.50    81.00    V-points


 Fennel Model Parameters, Grid: 01
 =================================

          1  BioIter           Number of iterations for nonlinear convergence.
 4.0000E-02  AttSW             Light attenuation of seawater (m-1).
 2.4860E-02  AttChl            Light attenuation by chlorophyll (1/(mg_Chl m-2)).
 4.3000E-01  PARfrac           Fraction of shortwave radiation that is
                                 photosynthetically active (nondimensional).
 1.0000E+00  Vp0               Eppley temperature-limited growth parameter
                                 (nondimensional).
 9.5000E-03  I_thNH4           Radiation threshold for nitrification (W/m2).
 1.0000E-01  D_p5NH4           Half-saturation radiation for nitrification (W/m2).
 5.0000E-02  NitriR            Nitrification rate (day-1).
 2.0000E+00  K_NO3             Inverse half-saturation for phytoplankton NO3
                                 uptake (1/(mmol_N m-3)).
 2.0000E+00  K_NH4             Inverse half-saturation for phytoplankton NH4
                                 uptake (1/(mmol_N m-3)).
 2.0000E+00  K_Phy             Zooplankton half-saturation constant for ingestion
                                 (mmol_N m-3)^2.
 5.3500E-02  Chl2C_m           Maximum chlorophyll to carbon ratio (mg_Chl/mg_C).
 1.0000E-03  ChlMin            Chlorophyll minimum threshold (mg_Chl/m3).
 6.6250E+00  PhyCN             Phytoplankton Carbon:Nitrogen ratio (mol_C/mol_N).
 1.5000E+00  PhyIP             Phytoplankton NH4 inhibition parameter (1/mmol_N).
 2.5000E-02  PhyIS             Phytoplankton growth, initial slope of P-I curve
                                 (mg_C/(mg_Chl Watts m-2 day)).
 1.0000E-03  PhyMin            Phytoplankton minimum threshold (mmol_N/m3).
 1.5000E-01  PhyMR             Phytoplankton mortality rate (day-1).
 7.5000E-01  ZooAE_N           Zooplankton nitrogen assimilation efficiency
                                 (nondimensional).
 1.0000E-01  ZooBM             Rate for zooplankton basal metabolism (1/day).
 6.6250E+00  ZooCN             Zooplankton Carbon:Nitrogen ratio (mol_C/mol_N).
 1.0000E-01  ZooER             Zooplankton specific excretion rate (day-1).
 6.0000E-01  ZooGR             Zooplankton maximum growth rate (day-1).
 1.0000E-03  ZooMin            Zooplankton minimum threshold (mmol_N/m3).
 2.5000E-02  ZooMR             Zooplankton mortality rate (day-1).
 1.0000E-02  LDeRRN            Large detritus N re-mineralization rate (day-1).
 1.0000E-02  LDeRRC            Large detritus C re-mineralization rate (day-1).
 5.0000E-03  CoagR             Coagulation rate (day-1).
 3.0000E-02  SDeRRN            Remineralization rate for small detritus N (day-1).
 3.0000E-02  SDeRRC            Remineralization rate for small detritus C (day-1).
 1.0000E-01  wPhy              Phytoplankton sinking velocity (m/day).
 1.0000E+00  wLDet             Large detritus sinking velocity (m/day).
 1.0000E-01  wSDet             Small detritus sinking velocity (m/day).
 3.7000E+02  pCO2air           CO2 partial pressure in air (ppm by volume).
          F  LtracerSponge(03) Turning OFF sponge on tracer 03: NO3
          F  LtracerSponge(04) Turning OFF sponge on tracer 04: NH4
          F  LtracerSponge(05) Turning OFF sponge on tracer 05: chlorophyll
          F  LtracerSponge(06) Turning OFF sponge on tracer 06: phytoplankton
          F  LtracerSponge(07) Turning OFF sponge on tracer 07: zooplankton
          F  LtracerSponge(08) Turning OFF sponge on tracer 08: LdetritusN
          F  LtracerSponge(09) Turning OFF sponge on tracer 09: SdetritusN
          F  LtracerSponge(10) Turning OFF sponge on tracer 10: LdetritusC
          F  LtracerSponge(11) Turning OFF sponge on tracer 11: SdetritusC
          F  LtracerSponge(12) Turning OFF sponge on tracer 12: TIC
          F  LtracerSponge(13) Turning OFF sponge on tracer 13: alkalinity
          F  LtracerSponge(14) Turning OFF sponge on tracer 14: oxygen
 1.0000E-06  Akt_bak(03)       Background vertical mixing coefficient (m2/s)
                                 for tracer 03: NO3
 1.0000E-06  Akt_bak(04)       Background vertical mixing coefficient (m2/s)
                                 for tracer 04: NH4
 1.0000E-06  Akt_bak(05)       Background vertical mixing coefficient (m2/s)
                                 for tracer 05: chlorophyll
 1.0000E-06  Akt_bak(06)       Background vertical mixing coefficient (m2/s)
                                 for tracer 06: phytoplankton
 1.0000E-06  Akt_bak(07)       Background vertical mixing coefficient (m2/s)
                                 for tracer 07: zooplankton
 1.0000E-06  Akt_bak(08)       Background vertical mixing coefficient (m2/s)
                                 for tracer 08: LdetritusN
 1.0000E-06  Akt_bak(09)       Background vertical mixing coefficient (m2/s)
                                 for tracer 09: SdetritusN
 1.0000E-06  Akt_bak(10)       Background vertical mixing coefficient (m2/s)
                                 for tracer 10: LdetritusC
 1.0000E-06  Akt_bak(11)       Background vertical mixing coefficient (m2/s)
                                 for tracer 11: SdetritusC
 1.0000E-06  Akt_bak(12)       Background vertical mixing coefficient (m2/s)
                                 for tracer 12: TIC
 1.0000E-06  Akt_bak(13)       Background vertical mixing coefficient (m2/s)
                                 for tracer 13: alkalinity
 1.0000E-06  Akt_bak(14)       Background vertical mixing coefficient (m2/s)
                                 for tracer 14: oxygen
 0.0000E+00  Tnudg(03)         Nudging/relaxation time scale (days)
                                 for tracer 03: NO3
 0.0000E+00  Tnudg(04)         Nudging/relaxation time scale (days)
                                 for tracer 04: NH4
 0.0000E+00  Tnudg(05)         Nudging/relaxation time scale (days)
                                 for tracer 05: chlorophyll
 0.0000E+00  Tnudg(06)         Nudging/relaxation time scale (days)
                                 for tracer 06: phytoplankton
 0.0000E+00  Tnudg(07)         Nudging/relaxation time scale (days)
                                 for tracer 07: zooplankton
 0.0000E+00  Tnudg(08)         Nudging/relaxation time scale (days)
                                 for tracer 08: LdetritusN
 0.0000E+00  Tnudg(09)         Nudging/relaxation time scale (days)
                                 for tracer 09: SdetritusN
 0.0000E+00  Tnudg(10)         Nudging/relaxation time scale (days)
                                 for tracer 10: LdetritusC
 0.0000E+00  Tnudg(11)         Nudging/relaxation time scale (days)
                                 for tracer 11: SdetritusC
 0.0000E+00  Tnudg(12)         Nudging/relaxation time scale (days)
                                 for tracer 12: TIC
 0.0000E+00  Tnudg(13)         Nudging/relaxation time scale (days)
                                 for tracer 13: alkalinity
 0.0000E+00  Tnudg(14)         Nudging/relaxation time scale (days)
                                 for tracer 14: oxygen
          F  LtracerSrc(03)    Turning OFF point sources/Sink on tracer 03: NO3
          F  LtracerSrc(04)    Turning OFF point sources/Sink on tracer 04: NH4
          F  LtracerSrc(05)    Turning OFF point sources/Sink on tracer 05: chlorophyll
          F  LtracerSrc(06)    Turning OFF point sources/Sink on tracer 06: phytoplankton
          F  LtracerSrc(07)    Turning OFF point sources/Sink on tracer 07: zooplankton
          F  LtracerSrc(08)    Turning OFF point sources/Sink on tracer 08: LdetritusN
          F  LtracerSrc(09)    Turning OFF point sources/Sink on tracer 09: SdetritusN
          F  LtracerSrc(10)    Turning OFF point sources/Sink on tracer 10: LdetritusC
          F  LtracerSrc(11)    Turning OFF point sources/Sink on tracer 11: SdetritusC
          F  LtracerSrc(12)    Turning OFF point sources/Sink on tracer 12: TIC
          F  LtracerSrc(13)    Turning OFF point sources/Sink on tracer 13: alkalinity
          F  LtracerSrc(14)    Turning OFF point sources/Sink on tracer 14: oxygen
          F  LtracerCLM(03)    Turning OFF processing of climatology tracer 03: NO3
          F  LtracerCLM(04)    Turning OFF processing of climatology tracer 04: NH4
          F  LtracerCLM(05)    Turning OFF processing of climatology tracer 05: chlorophyll
          F  LtracerCLM(06)    Turning OFF processing of climatology tracer 06: phytoplankton
          F  LtracerCLM(07)    Turning OFF processing of climatology tracer 07: zooplankton
          F  LtracerCLM(08)    Turning OFF processing of climatology tracer 08: LdetritusN
          F  LtracerCLM(09)    Turning OFF processing of climatology tracer 09: SdetritusN
          F  LtracerCLM(10)    Turning OFF processing of climatology tracer 10: LdetritusC
          F  LtracerCLM(11)    Turning OFF processing of climatology tracer 11: SdetritusC
          F  LtracerCLM(12)    Turning OFF processing of climatology tracer 12: TIC
          F  LtracerCLM(13)    Turning OFF processing of climatology tracer 13: alkalinity
          F  LtracerCLM(14)    Turning OFF processing of climatology tracer 14: oxygen
          F  LnudgeTCLM(03)    Turning OFF nudging of climatology tracer 03: NO3
          F  LnudgeTCLM(04)    Turning OFF nudging of climatology tracer 04: NH4
          F  LnudgeTCLM(05)    Turning OFF nudging of climatology tracer 05: chlorophyll
          F  LnudgeTCLM(06)    Turning OFF nudging of climatology tracer 06: phytoplankton
          F  LnudgeTCLM(07)    Turning OFF nudging of climatology tracer 07: zooplankton
          F  LnudgeTCLM(08)    Turning OFF nudging of climatology tracer 08: LdetritusN
          F  LnudgeTCLM(09)    Turning OFF nudging of climatology tracer 09: SdetritusN
          F  LnudgeTCLM(10)    Turning OFF nudging of climatology tracer 10: LdetritusC
          F  LnudgeTCLM(11)    Turning OFF nudging of climatology tracer 11: SdetritusC
          F  LnudgeTCLM(12)    Turning OFF nudging of climatology tracer 12: TIC
          F  LnudgeTCLM(13)    Turning OFF nudging of climatology tracer 13: alkalinity
          F  LnudgeTCLM(14)    Turning OFF nudging of climatology tracer 14: oxygen

          T  Hout(idTvar)      Write out tracer 03: NO3
          T  Hout(idTvar)      Write out tracer 04: NH4
          T  Hout(idTvar)      Write out tracer 05: chlorophyll
          T  Hout(idTvar)      Write out tracer 06: phytoplankton
          T  Hout(idTvar)      Write out tracer 07: zooplankton
          T  Hout(idTvar)      Write out tracer 08: LdetritusN
          T  Hout(idTvar)      Write out tracer 09: SdetritusN
          T  Hout(idTvar)      Write out tracer 10: LdetritusC
          T  Hout(idTvar)      Write out tracer 11: SdetritusC
          T  Hout(idTvar)      Write out tracer 12: TIC
          T  Hout(idTvar)      Write out tracer 13: alkalinity
          T  Hout(idTvar)      Write out tracer 14: oxygen

          T  Aout(idTvar)      Write out averaged tracer 03: NO3
          T  Aout(idTvar)      Write out averaged tracer 04: NH4
          T  Aout(idTvar)      Write out averaged tracer 05: chlorophyll
          T  Aout(idTvar)      Write out averaged tracer 06: phytoplankton
          T  Aout(idTvar)      Write out averaged tracer 07: zooplankton
          T  Aout(idTvar)      Write out averaged tracer 08: LdetritusN
          T  Aout(idTvar)      Write out averaged tracer 09: SdetritusN
          T  Aout(idTvar)      Write out averaged tracer 10: LdetritusC
          T  Aout(idTvar)      Write out averaged tracer 11: SdetritusC
          T  Aout(idTvar)      Write out averaged tracer 12: TIC
          T  Aout(idTvar)      Write out averaged tracer 13: alkalinity
          T  Aout(idTvar)      Write out averaged tracer 14: oxygen

          T  Dout(iTrate)      Write out rate of change of tracer 03: NO3
          T  Dout(iTrate)      Write out rate of change of tracer 04: NH4
          T  Dout(iTrate)      Write out rate of change of tracer 05: chlorophyll
          T  Dout(iTrate)      Write out rate of change of tracer 06: phytoplankton
          T  Dout(iTrate)      Write out rate of change of tracer 07: zooplankton
          T  Dout(iTrate)      Write out rate of change of tracer 08: LdetritusN
          T  Dout(iTrate)      Write out rate of change of tracer 09: SdetritusN
          T  Dout(iTrate)      Write out rate of change of tracer 10: LdetritusC
          T  Dout(iTrate)      Write out rate of change of tracer 11: SdetritusC
          T  Dout(iTrate)      Write out rate of change of tracer 12: TIC
          T  Dout(iTrate)      Write out rate of change of tracer 13: alkalinity
          T  Dout(iTrate)      Write out rate of change of tracer 14: oxygen
          T  Dout(iThadv)      Write out horizontal advection, tracer 03: NO3
          T  Dout(iThadv)      Write out horizontal advection, tracer 04: NH4
          T  Dout(iThadv)      Write out horizontal advection, tracer 05: chlorophyll
          T  Dout(iThadv)      Write out horizontal advection, tracer 06: phytoplankton
          T  Dout(iThadv)      Write out horizontal advection, tracer 07: zooplankton
          T  Dout(iThadv)      Write out horizontal advection, tracer 08: LdetritusN
          T  Dout(iThadv)      Write out horizontal advection, tracer 09: SdetritusN
          T  Dout(iThadv)      Write out horizontal advection, tracer 10: LdetritusC
          T  Dout(iThadv)      Write out horizontal advection, tracer 11: SdetritusC
          T  Dout(iThadv)      Write out horizontal advection, tracer 12: TIC
          T  Dout(iThadv)      Write out horizontal advection, tracer 13: alkalinity
          T  Dout(iThadv)      Write out horizontal advection, tracer 14: oxygen
          T  Dout(iTxadv)      Write out horizontal X-advection, tracer 03: NO3
          T  Dout(iTxadv)      Write out horizontal X-advection, tracer 04: NH4
          T  Dout(iTxadv)      Write out horizontal X-advection, tracer 05: chlorophyll
          T  Dout(iTxadv)      Write out horizontal X-advection, tracer 06: phytoplankton
          T  Dout(iTxadv)      Write out horizontal X-advection, tracer 07: zooplankton
          T  Dout(iTxadv)      Write out horizontal X-advection, tracer 08: LdetritusN
          T  Dout(iTxadv)      Write out horizontal X-advection, tracer 09: SdetritusN
          T  Dout(iTxadv)      Write out horizontal X-advection, tracer 10: LdetritusC
          T  Dout(iTxadv)      Write out horizontal X-advection, tracer 11: SdetritusC
          T  Dout(iTxadv)      Write out horizontal X-advection, tracer 12: TIC
          T  Dout(iTxadv)      Write out horizontal X-advection, tracer 13: alkalinity
          T  Dout(iTxadv)      Write out horizontal X-advection, tracer 14: oxygen
          T  Dout(iTyadv)      Write out horizontal Y-advection, tracer 03: NO3
          T  Dout(iTyadv)      Write out horizontal Y-advection, tracer 04: NH4
          T  Dout(iTyadv)      Write out horizontal Y-advection, tracer 05: chlorophyll
          T  Dout(iTyadv)      Write out horizontal Y-advection, tracer 06: phytoplankton
          T  Dout(iTyadv)      Write out horizontal Y-advection, tracer 07: zooplankton
          T  Dout(iTyadv)      Write out horizontal Y-advection, tracer 08: LdetritusN
          T  Dout(iTyadv)      Write out horizontal Y-advection, tracer 09: SdetritusN
          T  Dout(iTyadv)      Write out horizontal Y-advection, tracer 10: LdetritusC
          T  Dout(iTyadv)      Write out horizontal Y-advection, tracer 11: SdetritusC
          T  Dout(iTyadv)      Write out horizontal Y-advection, tracer 12: TIC
          T  Dout(iTyadv)      Write out horizontal Y-advection, tracer 13: alkalinity
          T  Dout(iTyadv)      Write out horizontal Y-advection, tracer 14: oxygen
          T  Dout(iTvadv)      Write out vertical advection, tracer 03: NO3
          T  Dout(iTvadv)      Write out vertical advection, tracer 04: NH4
          T  Dout(iTvadv)      Write out vertical advection, tracer 05: chlorophyll
          T  Dout(iTvadv)      Write out vertical advection, tracer 06: phytoplankton
          T  Dout(iTvadv)      Write out vertical advection, tracer 07: zooplankton
          T  Dout(iTvadv)      Write out vertical advection, tracer 08: LdetritusN
          T  Dout(iTvadv)      Write out vertical advection, tracer 09: SdetritusN
          T  Dout(iTvadv)      Write out vertical advection, tracer 10: LdetritusC
          T  Dout(iTvadv)      Write out vertical advection, tracer 11: SdetritusC
          T  Dout(iTvadv)      Write out vertical advection, tracer 12: TIC
          T  Dout(iTvadv)      Write out vertical advection, tracer 13: alkalinity
          T  Dout(iTvadv)      Write out vertical advection, tracer 14: oxygen
          T  Dout(iTvdif)      Write out vertical diffusion, tracer 03: NO3
          T  Dout(iTvdif)      Write out vertical diffusion, tracer 04: NH4
          T  Dout(iTvdif)      Write out vertical diffusion, tracer 05: chlorophyll
          T  Dout(iTvdif)      Write out vertical diffusion, tracer 06: phytoplankton
          T  Dout(iTvdif)      Write out vertical diffusion, tracer 07: zooplankton
          T  Dout(iTvdif)      Write out vertical diffusion, tracer 08: LdetritusN
          T  Dout(iTvdif)      Write out vertical diffusion, tracer 09: SdetritusN
          T  Dout(iTvdif)      Write out vertical diffusion, tracer 10: LdetritusC
          T  Dout(iTvdif)      Write out vertical diffusion, tracer 11: SdetritusC
          T  Dout(iTvdif)      Write out vertical diffusion, tracer 12: TIC
          T  Dout(iTvdif)      Write out vertical diffusion, tracer 13: alkalinity
          T  Dout(iTvdif)      Write out vertical diffusion, tracer 14: oxygen
          T  Dout(iDbio2)      Write out diagnostics for denitrification
          T  Dout(iDbio2)      Write out diagnostics for CO2_airsea
          T  Dout(iDbio2)      Write out diagnostics for pCO2
          T  Dout(iDbio2)      Write out diagnostics for O2_airsea
          T  Dout(iDbio3)      Write out diagnostics for P_Production
          T  Dout(iDbio3)      Write out diagnostics for NO3_uptake


 Floats Initial Locations, Grid: 01
 ==================================

               Ft0     Fx0     Fy0     Fz0      Fdt      Fdx      Fdy      Fdz

0 1    1    0.1000   10.00    5.00   -1.00    0.000    0.000    0.000    0.000
0 1    1    0.1000   10.00   10.00   -1.00    0.000    0.000    0.000    0.000
0 1    1    0.1000   10.00   15.00   -1.00    0.000    0.000    0.000    0.000
0 1    1    0.1000   10.00   20.00   -1.00    0.000    0.000    0.000    0.000
0 1    1    0.1000   15.00    5.00   -1.00    0.000    0.000    0.000    0.000
0 1    1    0.1000   15.00   10.00   -1.00    0.000    0.000    0.000    0.000
0 1    1    0.1000   15.00   15.00   -1.00    0.000    0.000    0.000    0.000
0 1    1    0.1000   15.00   20.00   -1.00    0.000    0.000    0.000    0.000
0 1    1    0.1000   20.00    5.00   -1.00    0.000    0.000    0.000    0.000
0 1    1    0.1000   20.00   10.00   -1.00    0.000    0.000    0.000    0.000
0 1    1    0.1000   20.00   15.00   -1.00    0.000    0.000    0.000    0.000
0 1    1    0.1000   20.00   20.00   -1.00    0.000    0.000    0.000    0.000
0 1    1    0.1000   10.00   55.00   -1.00    0.000    0.000    0.000    0.000
0 1    1    0.1000   10.00   60.00   -1.00    0.000    0.000    0.000    0.000
0 1    1    0.1000   10.00   65.00   -1.00    0.000    0.000    0.000    0.000
0 1    1    0.1000   10.00   70.00   -1.00    0.000    0.000    0.000    0.000
0 1    1    0.1000   15.00   55.00   -1.00    0.000    0.000    0.000    0.000
0 1    1    0.1000   15.00   60.00   -1.00    0.000    0.000    0.000    0.000
0 1    1    0.1000   15.00   65.00   -1.00    0.000    0.000    0.000    0.000
0 1    1    0.1000   15.00   70.00   -1.00    0.000    0.000    0.000    0.000
0 1    1    0.1000   20.00   55.00   -1.00    0.000    0.000    0.000    0.000
0 1    1    0.1000   20.00   60.00   -1.00    0.000    0.000    0.000    0.000
0 1    1    0.1000   20.00   65.00   -1.00    0.000    0.000    0.000    0.000
0 1    1    0.1000   20.00   70.00   -1.00    0.000    0.000    0.000    0.000

         24  Nfloats         Number of float trajectories to compute.


 Stations Parameters, Grid: 01
 =============================

          1  Nstation        Number of stations to write out into stations file.
          T  Sout(idFsur)    Write out free-surface.
          T  Sout(idUbar)    Write out 2D U-momentum component.
          T  Sout(idVbar)    Write out 2D V-momentum component.
          T  Sout(idUvel)    Write out 3D U-momentum component.
          T  Sout(idVvel)    Write out 3D V-momentum component.
          T  Sout(idWvel)    Write out W-momentum component.
          T  Sout(idOvel)    Write out omega vertical velocity.
          T  Sout(idTvar)    Write out tracer 01: temp
          T  Sout(idTvar)    Write out tracer 02: salt
          T  Sout(idTvar)    Write out tracer 03: NO3
          T  Sout(idTvar)    Write out tracer 04: NH4
          T  Sout(idTvar)    Write out tracer 05: chlorophyll
          T  Sout(idTvar)    Write out tracer 06: phytoplankton
          T  Sout(idTvar)    Write out tracer 07: zooplankton
          T  Sout(idTvar)    Write out tracer 08: LdetritusN
          T  Sout(idTvar)    Write out tracer 09: SdetritusN
          T  Sout(idTvar)    Write out tracer 10: LdetritusC
          T  Sout(idTvar)    Write out tracer 11: SdetritusC
          T  Sout(idTvar)    Write out tracer 12: TIC
          T  Sout(idTvar)    Write out tracer 13: alkalinity
          T  Sout(idTvar)    Write out tracer 14: oxygen
          T  Sout(idDano)    Write out density anomaly.
          T  Sout(idVvis)    Write out vertical viscosity coefficient.
          T  Sout(idTdif)    Write out vertical T-diffusion coefficient.
          T  Sout(idSdif)    Write out vertical S-diffusion coefficient.

             Flag and positions for station 0001:  0    20.0000   40.0000

 Lateral Boundary Conditions: NLM
 ============================

 Variable               Grid  West Edge    South Edge   East Edge    North Edge
 ---------              ----  ----------   ----------   ----------   ----------

 zeta                     1   Periodic     Closed       Periodic     Closed

 ubar                     1   Periodic     Closed       Periodic     Closed

 vbar                     1   Periodic     Closed       Periodic     Closed

 u                        1   Periodic     Closed       Periodic     Closed

 v                        1   Periodic     Closed       Periodic     Closed

 temp                     1   Periodic     Closed       Periodic     Closed

 salt                     1   Periodic     Closed       Periodic     Closed

 NO3                      1   Periodic     Closed       Periodic     Closed

 NH4                      1   Periodic     Closed       Periodic     Closed

 chlorophyll              1   Periodic     Closed       Periodic     Closed

 phytoplankton            1   Periodic     Closed       Periodic     Closed

 zooplankton              1   Periodic     Closed       Periodic     Closed

 LdetritusN               1   Periodic     Closed       Periodic     Closed

 SdetritusN               1   Periodic     Closed       Periodic     Closed

 LdetritusC               1   Periodic     Closed       Periodic     Closed

 SdetritusC               1   Periodic     Closed       Periodic     Closed

 TIC                      1   Periodic     Closed       Periodic     Closed

 alkalinity               1   Periodic     Closed       Periodic     Closed

 oxygen                   1   Periodic     Closed       Periodic     Closed

 Activated C-preprocessing Options:

 UPWELLING               Wind-Driven Upwelling/Downwelling over a Periodic Channel
 ANA_BIOLOGY             Analytical biology initial conditions
 ANA_BPFLUX              Analytical bottom passive tracers fluxes
 ANA_BSFLUX              Analytical kinematic bottom salinity flux
 ANA_BTFLUX              Analytical kinematic bottom temperature flux
 ANA_DRAG_GRID           Analytical spatially varying linear drag coefficient
 ANA_GRID                Analytical grid set-up
 ANA_INITIAL             Analytical initial conditions
 ANA_SMFLUX              Analytical kinematic surface momentum flux
 ANA_SPFLUX              Analytical surface passive tracer fluxes
 ANA_SRFLUX              Analytical kinematic shortwave radiation flux
 ANA_SSFLUX              Analytical kinematic surface salinity flux
 ANA_STFLUX              Analytical kinematic surface temperature flux
 ANA_VMIX                Analytical vertical mixing coefficients
 ASSUMED_SHAPE           Using assumed-shape arrays
 AVERAGES                Writing out time-averaged nonlinear model fields
 BIO_FENNEL              Fennel et al. (2006) nitrogen-based model
 BIO_SEDIMENT            Restore fallen particulate material to the nutrient pool
 CARBON                  Add Carbon constituents
 DENITRIFICATION         Add denitrification processes
 DIAGNOSTICS_BIO         Computing and writing biological diagnostic terms
 DIAGNOSTICS_TS          Computing and writing tracer diagnostic terms
 DIAGNOSTICS_UV          Computing and writing momentum diagnostic terms
 DJ_GRADPS               Parabolic Splines density Jacobian (Shchepetkin, 2002)
 DOUBLE_PRECISION        Double precision arithmetic numerical kernel.
 FLOATS                  Simulated Lagrangian drifters
 FLOAT_VWALK             Lagrangian drifters with vertical diffusion, random walk
 MIX_S_UV                Mixing of momentum along constant S-surfaces
 NONLINEAR               Nonlinear Model
 !NONLIN_EOS             Linear Equation of State for seawater
 !OCMIP_OXYGEN_SC        Schmidt number from Wanninkhof (1992)
 OXYGEN                  Add oxygen dynamics
 POWER_LAW               Power-law shape time-averaging barotropic filter
 PROFILE                 Time profiling activated
 !RST_SINGLE             Double precision fields in restart NetCDF file
 SALINITY                Using salinity
 SOLVE3D                 Solving 3D Primitive Equations
 SPLINES_VDIFF           Parabolic Spline Reconstruction for Vertical Diffusion
 SPLINES_VVISC           Parabolic Spline Reconstruction for Vertical Viscosity
 STATIONS                Writing out station data
 !TALK_NONCONSERV        Alkalinity is passive and unaffected by nitrate or ammonium
 TS_U3HADVECTION         Third-order upstream horizontal advection of tracers
 TS_C4VADVECTION         Fourth-order centered vertical advection of tracers
 UV_ADV                  Advection of momentum
 UV_COR                  Coriolis term
 UV_U3HADVECTION         Third-order upstream horizontal advection of 3D momentum
 UV_C4VADVECTION         Fourth-order centered vertical advection of momentum
 UV_DRAG_GRID            Spatially varying linear drag coefficient
 UV_LDRAG                Linear bottom stress
 UV_VIS2                 Harmonic mixing of momentum
 VAR_RHO_2D              Variable density barotropic mode
 !VWALK_FORWARD          Lagrangian drifters, predictor/corrector random walk

 Process Information:

 Thread #    0 (pid=   21883) is active.

 INITIAL: Configuring and initializing forward nonlinear model ...
 *******

    ANA_GRID    - x-location of PSI-points: x_psi
                   (Grid = 01, Min =  0.00000000E+00 Max =  4.00000000E+04)
    ANA_GRID    - y-location of PSI-points: y_psi
                   (Grid = 01, Min =  0.00000000E+00 Max =  8.00000000E+04)
    ANA_GRID    - x-location of RHO-points: x_rho
                   (Grid = 01, Min =  5.00000000E+02 Max =  4.05000000E+04)
    ANA_GRID    - y-location of RHO-points: y_rho
                   (Grid = 01, Min = -5.00000000E+02 Max =  8.05000000E+04)
    ANA_GRID    - x-location of U-points: x_u
                   (Grid = 01, Min =  0.00000000E+00 Max =  4.00000000E+04)
    ANA_GRID    - y-location of U-points: y_u
                   (Grid = 01, Min = -5.00000000E+02 Max =  8.05000000E+04)
    ANA_GRID    - x-location of V-points: x_v
                   (Grid = 01, Min =  5.00000000E+02 Max =  4.05000000E+04)
    ANA_GRID    - y-location of V-points: y_v
                   (Grid = 01, Min =  0.00000000E+00 Max =  8.00000000E+04)
    ANA_GRID    - reciprocal XI-grid spacing: pm
                   (Grid = 01, Min =  1.00000000E-03 Max =  1.00000000E-03)
    ANA_GRID    - reciprocal ETA-grid spacing: pn
                   (Grid = 01, Min =  1.00000000E-03 Max =  1.00000000E-03)
    ANA_GRID    - angle between XI-axis and EAST: angler
                   (Grid = 01, Min =  0.00000000E+00 Max =  0.00000000E+00)
    ANA_GRID    - Coriolis parameter at RHO-points: f
                   (Grid = 01, Min = -8.26000000E-05 Max = -8.26000000E-05)
    ANA_GRID    - bathymetry at RHO-points: h
                   (Grid = 01, Min =  2.52004887E+01 Max =  1.50000000E+02)

 Vertical S-coordinate System, Grid 01:

 level   S-coord     Cs-curve   Z   at hmin       at hc    half way     at hmax

    16   0.0000000   0.0000000        0.000       0.000       0.000       0.000
    15  -0.0625000  -0.0019442       -0.809      -0.806      -1.348      -1.589
    14  -0.1250000  -0.0078455       -1.668      -1.661      -2.966      -3.687
    13  -0.1875000  -0.0179119       -2.580      -2.568      -4.867      -6.321
    12  -0.2500000  -0.0324983       -3.549      -3.531      -7.077      -9.535
    11  -0.3125000  -0.0521190       -4.581      -4.558      -9.630     -13.397
    10  -0.3750000  -0.0774659       -5.686      -5.656     -12.573     -17.996
     9  -0.4375000  -0.1094327       -6.875      -6.837     -15.967     -23.445
     8  -0.5000000  -0.1491465       -8.162      -8.114     -19.889     -29.890
     7  -0.5625000  -0.1980075       -9.564      -9.506     -24.435     -37.512
     6  -0.6250000  -0.2577387      -11.104     -11.034     -29.721     -46.531
     5  -0.6875000  -0.3304460      -12.808     -12.724     -35.892     -57.218
     4  -0.7500000  -0.4186931      -14.709     -14.609     -43.121     -69.903
     3  -0.8125000  -0.5255915      -16.846     -16.726     -51.622     -84.987
     2  -0.8750000  -0.6549105      -19.266     -19.124     -61.651    -102.953
     1  -0.9375000  -0.8112096      -22.028     -21.859     -73.518    -124.388
     0  -1.0000000  -1.0000000      -25.200     -25.000     -87.600    -150.000

 Time Splitting Weights for Grid 01:    ndtfast =  30    nfast =  42
 ==================================

    Primary            Secondary            Accumulated to Current Step

  1-0.0008094437383769 0.0333333333333333-0.0008094437383769 0.0333333333333333
  2-0.0014053566728197 0.0333603147912792-0.0022148004111966 0.0666936481246126
  3-0.0017877524645903 0.0334071600137066-0.0040025528757869 0.1001008081383191
  4-0.0019566842408176 0.0334667517625262-0.0059592371166046 0.1335675599008453
  5-0.0019122901320372 0.0335319745705535-0.0078715272486418 0.1670995344713988
  6-0.0016548570247459 0.0335957175749547-0.0095263842733877 0.2006952520463536
  7-0.0011849025289723 0.0336508794757796-0.0107112868023600 0.2343461315221331
  8-0.0005032751608631 0.0336903762267453-0.0112145619632232 0.2680365077488784
  9 0.0003887272597151 0.0337071520654408-0.0108258347035081 0.3017436598143192
 10 0.0014892209965583 0.0336941944901169-0.0093366137069498 0.3354378543044362
 11 0.0027955815694920 0.0336445537902317-0.0065410321374578 0.3690824080946679
 12 0.0043042707117221 0.0335513677379153-0.0022367614257357 0.4026337758325831
 13 0.0060106451121704 0.0334078920475245 0.0037738836864347 0.4360416678801076
 14 0.0079087469427945 0.0332075372104522 0.0116826306292293 0.4692492050905598
 15 0.0099910761708920 0.0329439123123590 0.0216737068001212 0.5021931174029188
 16 0.0122483446563884 0.0326108764399960 0.0339220514565096 0.5348039938429148
 17 0.0146692120341107 0.0322025982847830 0.0485912634906203 0.5670065921276978
 18 0.0172400033810439 0.0317136245503127 0.0658312668716642 0.5987202166780105
 19 0.0199444086685725 0.0311389577709445 0.0857756755402367 0.6298591744489550
 20 0.0227631639997064 0.0304741441486588 0.1085388395399431 0.6603333185976138
 21 0.0256737146312910 0.0297153720153352 0.1342125541712341 0.6900486906129490
 22 0.0286498597812016 0.0288595815276255 0.1628624139524357 0.7189082721405746
 23 0.0316613792205220 0.0279045862015855 0.1945237931729577 0.7468128583421600
 24 0.0346736416507075 0.0268492068942347 0.2291974348236651 0.7736620652363948
 25 0.0376471948657328 0.0256934188392112 0.2668446296893979 0.7993554840756060
 26 0.0405373376992232 0.0244385123436867 0.3073819673886211 0.8237939964192927
 27 0.0432936737565711 0.0230872677537126 0.3506756411451922 0.8468812641730054
 28 0.0458596469320356 0.0216441452951603 0.3965352880772278 0.8685254094681656
 29 0.0481720587108284 0.0201154903974257 0.4447073467880562 0.8886408998655914
 30 0.0501605672561820 0.0185097551070648 0.4948679140442381 0.9071506549726561
 31 0.0517471682814030 0.0168377361985254 0.5466150823256412 0.9239883911711815
 32 0.0528456577069106 0.0151128305891453 0.5994607400325517 0.9391012217603267
 33 0.0533610761022577 0.0133513086655816 0.6528218161348094 0.9524525304259084
 34 0.0531891349131379 0.0115726061288397 0.7060109510479473 0.9640251365547481
 35 0.0522156244733761 0.0097996349650684 0.7582265755213234 0.9738247715198165
 36 0.0503158038019031 0.0080591141492892 0.8085423793232265 0.9818838856691057
 37 0.0473537721847153 0.0063819206892258 0.8558961515079418 0.9882658063583315
 38 0.0431818225418188 0.0048034616164019 0.8990779740497606 0.9930692679747335
 39 0.0376397765791564 0.0033640675316746 0.9367177506289170 0.9964333355064081
 40 0.0305543017255206 0.0021094083123694 0.9672720523544377 0.9985427438187775
 41 0.0217382098544505 0.0010909315881854 0.9890102622088881 0.9996336754069629
 42 0.0109897377911119 0.0003663245930371 1.0000000000000000 1.0000000000000000

 ndtfast, nfast =   30  42   nfast/ndtfast =  1.40000

 Centers of gravity and integrals (values must be 1, 1, approx 1/2, 1, 1):

    1.000000000000 1.047601458608 0.523800729304 1.000000000000 1.000000000000

 Power filter parameters, Fgamma, gamma =  0.28400   0.18933

 Metrics information for Grid 01:
 ===============================

 Minimum X-grid spacing, DXmin =  1.00000000E+00 km
 Maximum X-grid spacing, DXmax =  1.00000000E+00 km
 Minimum Y-grid spacing, DYmin =  1.00000000E+00 km
 Maximum Y-grid spacing, DYmax =  1.00000000E+00 km
 Minimum Z-grid spacing, DZmin =  8.08965824E-01 m
 Maximum Z-grid spacing, DZmax =  2.56123321E+01 m

 Minimum barotropic Courant Number =  2.22358627E-01
 Maximum barotropic Courant Number =  5.42494240E-01
 Maximum Coriolis   Courant Number =  2.47800000E-02

    ANA_INITIAL - vertically integrated u-momentum component: ubar
                   (Grid = 01, Min =  0.00000000E+00 Max =  0.00000000E+00)
    ANA_INITIAL - vertically integrated v-momentum component: vbar
                   (Grid = 01, Min =  0.00000000E+00 Max =  0.00000000E+00)
    ANA_INITIAL - free-surface: zeta
                   (Grid = 01, Min =  0.00000000E+00 Max =  0.00000000E+00)
    ANA_INITIAL - u-momentum component: u
                   (Grid = 01, Min =  0.00000000E+00 Max =  0.00000000E+00)
    ANA_INITIAL - v-momentum component: v
                   (Grid = 01, Min =  0.00000000E+00 Max =  0.00000000E+00)
    ANA_INITIAL - potential temperature: temp
                   (Grid = 01, Min =  1.45204834E+01 Max =  2.19365219E+01)
    ANA_INITIAL - salinity: salt
                   (Grid = 01, Min =  3.50000000E+01 Max =  3.50000000E+01)
    ANA_BIOLOGY - nitrate concentration: NO3
                   (Grid = 01, Min =  1.67000000E+00 Max =  2.26358685E+00)
    ANA_BIOLOGY - ammonium concentration: NH4
                   (Grid = 01, Min =  1.00000000E-01 Max =  1.00000000E-01)
    ANA_BIOLOGY - chlorophyll concentration: chlorophyll
                   (Grid = 01, Min =  2.00000000E-02 Max =  2.00000000E-02)
    ANA_BIOLOGY - phytoplankton concentration: phytoplankton
                   (Grid = 01, Min =  8.00000000E-02 Max =  8.00000000E-02)
    ANA_BIOLOGY - zooplankton concentration: zooplankton
                   (Grid = 01, Min =  6.00000000E-02 Max =  6.00000000E-02)
    ANA_BIOLOGY - large fraction nitrogen detritus concentration: LdetritusN
                   (Grid = 01, Min =  2.00000000E-02 Max =  2.00000000E-02)
    ANA_BIOLOGY - small fraction nitrogen detritus concentration: SdetritusN
                   (Grid = 01, Min =  4.00000000E-02 Max =  4.00000000E-02)
    ANA_BIOLOGY - large fraction carbon detritus concentration: LdetritusC
                   (Grid = 01, Min =  2.00000000E-03 Max =  2.00000000E-03)
    ANA_BIOLOGY - small fraction carbon detritus concentration: SdetritusC
                   (Grid = 01, Min =  6.00000000E-02 Max =  6.00000000E-02)
    ANA_BIOLOGY - total inorganic carbon: TIC
                   (Grid = 01, Min =  2.10000000E+03 Max =  2.10000000E+03)
    ANA_BIOLOGY - total alkalinity: alkalinity
                   (Grid = 01, Min =  2.35000000E+03 Max =  2.35000000E+03)
    ANA_BIOLOGY - dissolved oxygen concentration: oxygen
                   (Grid = 01, Min =  4.46229362E+02 Max =  4.46229362E+02)
    ANA_DRAG    - linear bottom drag coefficient: rdrag
                   (Grid = 01, Min =  4.76811688E-04 Max =  1.66711947E-03)

 Basin information for Grid 01:

 Maximum grid stiffness ratios:  rx0 =   6.931666E-02 (Beckmann and Haidvogel)
                                 rx1 =   8.661243E-01 (Haney)

 Initial domain volumes:  TotVolume =  3.8843755884E+11 m3
                         MinCellVol =  8.4521383562E+05 m3
                         MaxCellVol =  2.5612332106E+07 m3
                            Max/Min =  3.0302783777E+01

 NL ROMS/TOMS: started time-stepping: (Grid: 01 TimeSteps: 000000000001 - 000000000288)


 TIME-STEP YYYY-MM-DD hh:mm:ss.ss  KINETIC_ENRG   POTEN_ENRG    TOTAL_ENRG    NET_VOLUME
                     C => (i,j,k)       Cu            Cv            Cw         Max Speed

         0 0001-01-01 00:00:00.00  0.000000E+00  6.585677E+02  6.585677E+02  3.884376E+11
                       (00,00,00)  0.000000E+00  0.000000E+00  0.000000E+00  0.000000E+00
      DEF_HIS     - creating  history      file, Grid 01: roms_his.nc
      WRT_HIS     - wrote history     fields (Index=1,1) in record = 0000001
      DEF_AVG     - creating  average      file, Grid 01: roms_avg.nc
      DEF_DIAGS   - creating  diagnostics  file, Grid 01: roms_dia.nc
      DEF_STATION - creating  stations     file, Grid 01: roms_sta.nc
      DEF_FLOATS  - creating  floats       file, Grid 01: roms_flt.nc
      DEF_RST   - creating restart file: roms_rst.nc
         1 0001-01-01 00:05:00.00  6.479416E-13  6.585677E+02  6.585677E+02  3.884376E+11
                       (01,01,01)  1.068554E-09  1.950202E-06  0.000000E+00  9.216771E-06
         2 0001-01-01 00:10:00.00  9.248409E-12  6.585677E+02  6.585677E+02  3.884376E+11
                       (04,02,08)  6.737741E-08  1.759705E-06  1.433645E-05  3.656751E-05
         3 0001-01-01 00:15:00.00  5.902185E-11  6.585677E+02  6.585677E+02  3.884376E+11
                       (40,79,16)  2.683672E-05  3.808357E-06  5.381841E-06  9.266115E-05
         4 0001-01-01 00:20:00.00  2.028554E-10  6.585677E+02  6.585677E+02  3.884376E+11
                       (16,79,16)  4.853716E-05  5.342231E-06  3.945138E-06  1.660391E-04
         5 0001-01-01 00:25:00.00  5.077129E-10  6.585677E+02  6.585677E+02  3.884376E+11
                       (31,80,16)  7.515712E-05  6.393262E-06  5.146063E-06  2.537884E-04
         6 0001-01-01 00:30:00.00  1.051964E-09  6.585677E+02  6.585677E+02  3.884376E+11
                       (40,79,16)  1.041386E-04  9.143969E-06  6.069814E-06  3.541281E-04
         7 0001-01-01 00:35:00.00  1.924006E-09  6.585677E+02  6.585677E+02  3.884376E+11
                       (26,80,16)  1.382721E-04  9.418093E-06  7.900493E-06  4.658337E-04
         8 0001-01-01 00:40:00.00  3.221216E-09  6.585677E+02  6.585677E+02  3.884376E+11
                       (02,80,16)  1.746104E-04  1.114504E-05  9.626283E-06  5.879837E-04
         9 0001-01-01 00:45:00.00  5.049013E-09  6.585677E+02  6.585677E+02  3.884376E+11
                       (19,79,16)  2.122044E-04  1.714822E-05  1.094041E-05  7.198195E-04
        10 0001-01-01 00:50:00.00  7.520164E-09  6.585677E+02  6.585677E+02  3.884376E+11
                       (17,79,16)  2.538286E-04  2.045576E-05  1.282278E-05  8.607474E-04
        11 0001-01-01 00:55:00.00  1.075438E-08  6.585677E+02  6.585677E+02  3.884376E+11
                       (13,79,16)  2.979748E-04  2.400586E-05  1.466258E-05  1.010257E-03
        12 0001-01-01 01:00:00.00  1.487788E-08  6.585677E+02  6.585677E+02  3.884376E+11
                       (28,79,16)  3.445149E-04  2.785623E-05  1.437709E-05  1.167918E-03
        13 0001-01-01 01:05:00.00  2.002286E-08  6.585677E+02  6.585677E+02  3.884376E+11
                       (18,79,16)  3.933339E-04  3.214622E-05  1.299913E-05  1.333359E-03
        14 0001-01-01 01:10:00.00  2.632711E-08  6.585677E+02  6.585677E+02  3.884376E+11
                       (36,79,16)  4.443301E-04  3.681757E-05  1.334238E-05  1.506248E-03
        15 0001-01-01 01:15:00.00  3.393375E-08  6.585677E+02  6.585677E+02  3.884376E+11
                       (16,79,16)  4.974141E-04  4.183416E-05  1.409266E-05  1.686291E-03
        16 0001-01-01 01:20:00.00  4.299095E-08  6.585677E+02  6.585677E+02  3.884376E+11
                       (10,79,16)  5.525052E-04  4.726687E-05  1.439849E-05  1.873225E-03
        17 0001-01-01 01:25:00.00  5.365153E-08  6.585677E+02  6.585677E+02  3.884376E+11
                       (17,79,16)  6.095291E-04  5.307721E-05  1.563323E-05  2.066813E-03
        18 0001-01-01 01:30:00.00  6.607263E-08  6.585677E+02  6.585677E+02  3.884376E+11
                       (04,79,16)  6.684201E-04  5.920679E-05  1.691837E-05  2.266840E-03
        19 0001-01-01 01:35:00.00  8.041558E-08  6.585677E+02  6.585677E+02  3.884376E+11
                       (23,79,16)  7.291180E-04  6.567835E-05  1.701321E-05  2.473105E-03
        20 0001-01-01 01:40:00.00  9.684565E-08  6.585677E+02  6.585677E+02  3.884376E+11
                       (14,79,16)  7.915670E-04  7.248179E-05  1.630943E-05  2.685426E-03
        21 0001-01-01 01:45:00.00  1.155317E-07  6.585677E+02  6.585677E+02  3.884376E+11
                       (40,79,16)  8.557150E-04  7.969305E-05  1.475671E-05  2.903632E-03
        22 0001-01-01 01:50:00.00  1.366460E-07  6.585677E+02  6.585677E+02  3.884376E+11
                       (01,79,16)  9.215116E-04  8.733704E-05  1.402249E-05  3.127564E-03
        23 0001-01-01 01:55:00.00  1.603643E-07  6.585677E+02  6.585677E+02  3.884376E+11
                       (03,79,16)  9.889104E-04  9.534529E-05  1.467651E-05  3.357082E-03
        24 0001-01-01 02:00:00.00  1.868652E-07  6.585677E+02  6.585677E+02  3.884376E+11
                       (07,79,16)  1.057869E-03  1.037027E-04  1.532280E-05  3.592050E-03
        25 0001-01-01 02:05:00.00  2.163303E-07  6.585677E+02  6.585677E+02  3.884376E+11
                       (08,79,16)  1.128348E-03  1.124179E-04  1.567573E-05  3.832340E-03
        26 0001-01-01 02:10:00.00  2.489441E-07  6.585677E+02  6.585677E+02  3.884376E+11
                       (05,79,16)  1.200309E-03  1.214501E-04  1.596588E-05  4.077834E-03
        27 0001-01-01 02:15:00.00  2.848933E-07  6.585677E+02  6.585677E+02  3.884376E+11
                       (36,79,16)  1.273718E-03  1.307860E-04  1.543841E-05  4.328420E-03
        28 0001-01-01 02:20:00.00  3.243675E-07  6.585677E+02  6.585677E+02  3.884376E+11
                       (27,79,16)  1.348543E-03  1.404384E-04  1.391074E-05  4.583991E-03
        29 0001-01-01 02:25:00.00  3.675580E-07  6.585677E+02  6.585677E+02  3.884376E+11
                       (40,79,16)  1.424751E-03  1.504375E-04  1.180439E-05  4.844443E-03
        30 0001-01-01 02:30:00.00  4.146580E-07  6.585677E+02  6.585677E+02  3.884376E+11
                       (08,79,16)  1.502311E-03  1.608213E-04  9.962017E-06  5.109681E-03
        31 0001-01-01 02:35:00.00  4.658626E-07  6.585677E+02  6.585677E+02  3.884376E+11
                       (26,79,16)  1.581195E-03  1.715580E-04  9.320058E-06  5.379617E-03
        32 0001-01-01 02:40:00.00  5.213683E-07  6.585677E+02  6.585677E+02  3.884376E+11
                       (37,79,16)  1.661373E-03  1.825916E-04  9.305577E-06  5.654171E-03
        33 0001-01-01 02:45:00.00  5.813731E-07  6.585677E+02  6.585677E+02  3.884376E+11
                       (08,78,16)  1.738416E-03  1.996415E-04  7.908571E-06  5.933263E-03
        34 0001-01-01 02:50:00.00  6.460760E-07  6.585677E+02  6.585677E+02  3.884376E+11
                       (29,78,16)  1.820565E-03  2.133489E-04  8.022028E-06  6.216815E-03
        35 0001-01-01 02:55:00.00  7.156771E-07  6.585677E+02  6.585677E+02  3.884376E+11
                       (27,78,16)  1.903886E-03  2.274498E-04  7.717593E-06  6.504753E-03
        36 0001-01-01 03:00:00.00  7.903775E-07  6.585677E+02  6.585677E+02  3.884376E+11
                       (13,78,16)  1.988356E-03  2.419584E-04  6.999199E-06  6.797006E-03
        37 0001-01-01 03:05:00.00  8.703793E-07  6.585677E+02  6.585677E+02  3.884376E+11
                       (32,07,16)  2.020515E-03  3.171809E-04  9.624836E-07  7.093505E-03
        38 0001-01-01 03:10:00.00  9.558850E-07  6.585677E+02  6.585677E+02  3.884376E+11
                       (32,07,16)  2.104480E-03  3.374884E-04  1.031062E-06  7.394184E-03
        39 0001-01-01 03:15:00.00  1.047098E-06  6.585677E+02  6.585677E+02  3.884376E+11
                       (32,07,16)  2.189399E-03  3.583944E-04  6.461583E-07  7.698984E-03
        40 0001-01-01 03:20:00.00  1.144222E-06  6.585677E+02  6.585677E+02  3.884376E+11
                       (22,08,16)  2.261051E-03  3.939590E-04  4.027273E-07  8.007852E-03
        41 0001-01-01 03:25:00.00  1.247462E-06  6.585677E+02  6.585677E+02  3.884376E+11
                       (40,07,16)  2.361992E-03  4.022568E-04  7.174861E-07  8.320734E-03
        42 0001-01-01 03:30:00.00  1.357022E-06  6.585677E+02  6.585677E+02  3.884376E+11
                       (24,07,16)  2.449611E-03  4.252469E-04  1.217931E-06  8.637575E-03
        43 0001-01-01 03:35:00.00  1.473106E-06  6.585677E+02  6.585677E+02  3.884376E+11
                       (02,08,16)  2.521852E-03  4.660525E-04  7.502765E-07  8.958322E-03
        44 0001-01-01 03:40:00.00  1.595919E-06  6.585677E+02  6.585677E+02  3.884376E+11
                       (04,08,16)  2.610409E-03  4.914933E-04  7.725143E-07  9.282924E-03
        45 0001-01-01 03:45:00.00  1.725663E-06  6.585677E+02  6.585677E+02  3.884376E+11
                       (01,08,16)  2.699736E-03  5.175870E-04  9.017751E-07  9.611332E-03
        46 0001-01-01 03:50:00.00  1.862543E-06  6.585677E+02  6.585677E+02  3.884376E+11
                       (08,08,16)  2.789812E-03  5.443160E-04  1.294659E-06  9.943499E-03
        47 0001-01-01 03:55:00.00  2.006761E-06  6.585677E+02  6.585677E+02  3.884376E+11
                       (14,08,16)  2.880612E-03  5.716956E-04  1.978247E-06  1.027938E-02
        48 0001-01-01 04:00:00.00  2.158517E-06  6.585677E+02  6.585677E+02  3.884376E+11
                       (29,09,16)  2.954135E-03  6.188831E-04  1.760272E-06  1.061895E-02
        49 0001-01-01 04:05:00.00  2.318013E-06  6.585677E+02  6.585677E+02  3.884376E+11
                       (29,09,16)  3.045550E-03  6.488572E-04  2.285000E-06  1.096215E-02
        50 0001-01-01 04:10:00.00  2.485448E-06  6.585677E+02  6.585677E+02  3.884376E+11
                       (38,71,16)  3.130783E-03  6.882169E-04  9.394634E-07  1.130895E-02
        51 0001-01-01 04:15:00.00  2.661020E-06  6.585677E+02  6.585677E+02  3.884376E+11
                       (38,71,16)  3.222936E-03  7.207985E-04  1.301533E-06  1.165931E-02
        52 0001-01-01 04:20:00.00  2.844927E-06  6.585677E+02  6.585677E+02  3.884376E+11
                       (38,71,16)  3.315639E-03  7.541445E-04  1.793583E-06  1.201319E-02
        53 0001-01-01 04:25:00.00  3.037365E-06  6.585677E+02  6.585677E+02  3.884376E+11
                       (09,71,16)  3.408869E-03  7.882651E-04  2.252298E-06  1.237054E-02
        54 0001-01-01 04:30:00.00  3.238531E-06  6.585677E+02  6.585677E+02  3.884376E+11
                       (38,71,16)  3.502602E-03  8.231499E-04  2.548610E-06  1.273134E-02
        55 0001-01-01 04:35:00.00  3.448617E-06  6.585677E+02  6.585677E+02  3.884376E+11
                       (38,71,16)  3.596816E-03  8.587695E-04  2.699999E-06  1.309556E-02
        56 0001-01-01 04:40:00.00  3.667817E-06  6.585677E+02  6.585677E+02  3.884376E+11
                       (22,70,16)  3.673551E-03  9.145247E-04  1.542879E-06  1.346315E-02
        57 0001-01-01 04:45:00.00  3.896322E-06  6.585677E+02  6.585677E+02  3.884376E+11
                       (22,70,16)  3.767948E-03  9.525442E-04  1.817162E-06  1.383410E-02
        58 0001-01-01 04:50:00.00  4.134320E-06  6.585677E+02  6.585677E+02  3.884376E+11
                       (22,70,16)  3.862741E-03  9.912525E-04  2.266753E-06  1.420837E-02
        59 0001-01-01 04:55:00.00  4.381998E-06  6.585677E+02  6.585677E+02  3.884376E+11
                       (22,70,16)  3.957909E-03  1.030675E-03  2.837344E-06  1.458593E-02
        60 0001-01-01 05:00:00.00  4.639540E-06  6.585677E+02  6.585677E+02  3.884376E+11
                       (04,70,16)  4.053432E-03  1.070841E-03  3.468684E-06  1.496674E-02
        61 0001-01-01 05:05:00.00  4.907130E-06  6.585677E+02  6.585677E+02  3.884376E+11
                       (02,01,14)  3.885907E-03  2.449335E-04  1.139188E-03  1.535077E-02
        62 0001-01-01 05:10:00.00  5.184946E-06  6.585677E+02  6.585677E+02  3.884376E+11
                       (02,01,14)  3.989319E-03  2.519233E-04  1.172726E-03  1.573800E-02
        63 0001-01-01 05:15:00.00  5.473166E-06  6.585677E+02  6.585677E+02  3.884376E+11
                       (02,01,14)  4.093683E-03  2.589272E-04  1.206594E-03  1.612840E-02
        64 0001-01-01 05:20:00.00  5.771965E-06  6.585677E+02  6.585677E+02  3.884376E+11
                       (02,01,14)  4.198991E-03  2.659483E-04  1.240521E-03  1.652194E-02
        65 0001-01-01 05:25:00.00  6.081515E-06  6.585677E+02  6.585677E+02  3.884376E+11
                       (15,01,14)  4.305235E-03  2.729892E-04  1.274247E-03  1.691861E-02
        66 0001-01-01 05:30:00.00  6.401986E-06  6.585677E+02  6.585677E+02  3.884376E+11
                       (09,01,14)  4.412407E-03  2.800484E-04  1.307572E-03  1.731836E-02
        67 0001-01-01 05:35:00.00  6.733547E-06  6.585677E+02  6.585677E+02  3.884376E+11
                       (11,01,13)  4.102815E-03  2.660174E-04  1.780915E-03  1.772117E-02
        68 0001-01-01 05:40:00.00  7.076363E-06  6.585677E+02  6.585677E+02  3.884376E+11
                       (11,01,13)  4.204894E-03  2.726627E-04  1.825108E-03  1.812702E-02
        69 0001-01-01 05:45:00.00  7.430597E-06  6.585677E+02  6.585677E+02  3.884376E+11
                       (11,01,13)  4.307876E-03  2.793069E-04  1.869715E-03  1.853587E-02
        70 0001-01-01 05:50:00.00  7.796411E-06  6.585677E+02  6.585677E+02  3.884376E+11
                       (11,01,13)  4.411754E-03  2.859532E-04  1.914866E-03  1.894770E-02
        71 0001-01-01 05:55:00.00  8.173962E-06  6.585677E+02  6.585677E+02  3.884376E+11
                       (11,01,13)  4.516521E-03  2.926071E-04  1.960361E-03  1.936250E-02
        72 0001-01-01 06:00:00.00  8.563406E-06  6.585677E+02  6.585677E+02  3.884376E+11
                       (11,01,13)  4.622170E-03  2.992726E-04  2.005895E-03  1.978023E-02
      WRT_HIS     - wrote history     fields (Index=1,1) in record = 0000002
      WRT_AVG     - wrote averaged    fields             in record = 0000001
      WRT_DIAGS   - wrote diagnostics fields             in record = 0000001
      WRT_RST     - wrote re-start    fields (Index=1,1) in record = 0000001
        73 0001-01-01 06:05:00.00  8.964894E-06  6.585677E+02  6.585677E+02  3.884376E+11
                       (11,01,13)  4.728694E-03  3.059512E-04  2.051244E-03  2.020088E-02
        74 0001-01-01 06:10:00.00  9.378575E-06  6.585677E+02  6.585677E+02  3.884376E+11
                       (11,01,13)  4.836085E-03  3.126421E-04  2.096316E-03  2.062442E-02
        75 0001-01-01 06:15:00.00  9.804593E-06  6.585677E+02  6.585677E+02  3.884376E+11
                       (11,01,13)  4.944336E-03  3.193410E-04  2.141150E-03  2.105082E-02
        76 0001-01-01 06:20:00.00  1.024309E-05  6.585677E+02  6.585677E+02  3.884376E+11
                       (11,01,13)  5.053442E-03  3.260418E-04  2.185953E-03  2.148005E-02
        77 0001-01-01 06:25:00.00  1.069420E-05  6.585677E+02  6.585677E+02  3.884376E+11
                       (11,01,13)  5.163395E-03  3.327420E-04  2.231016E-03  2.191211E-02
        78 0001-01-01 06:30:00.00  1.115807E-05  6.585677E+02  6.585677E+02  3.884376E+11
                       (11,01,13)  5.274189E-03  3.394445E-04  2.276464E-03  2.234695E-02
        79 0001-01-01 06:35:00.00  1.163482E-05  6.585677E+02  6.585677E+02  3.884376E+11
                       (31,01,13)  5.385817E-03  3.461557E-04  2.322130E-03  2.278457E-02
        80 0001-01-01 06:40:00.00  1.212458E-05  6.585677E+02  6.585677E+02  3.884376E+11
                       (31,01,13)  5.498273E-03  3.528795E-04  2.367703E-03  2.322494E-02
        81 0001-01-01 06:45:00.00  1.262747E-05  6.585677E+02  6.585677E+02  3.884376E+11
                       (31,01,13)  5.611550E-03  3.596156E-04  2.412988E-03  2.366804E-02
        82 0001-01-01 06:50:00.00  1.314363E-05  6.585677E+02  6.585677E+02  3.884376E+11
                       (16,01,13)  5.725641E-03  3.663608E-04  2.458008E-03  2.411384E-02
        83 0001-01-01 06:55:00.00  1.367317E-05  6.585677E+02  6.585677E+02  3.884376E+11
                       (31,01,13)  5.840540E-03  3.731103E-04  2.502942E-03  2.456233E-02
        84 0001-01-01 07:00:00.00  1.421621E-05  6.585677E+02  6.585677E+02  3.884376E+11
                       (21,01,13)  5.956241E-03  3.798602E-04  2.548026E-03  2.501347E-02
        85 0001-01-01 07:05:00.00  1.477286E-05  6.585677E+02  6.585677E+02  3.884376E+11
                       (31,01,13)  6.072737E-03  3.866093E-04  2.593468E-03  2.546724E-02
        86 0001-01-01 07:10:00.00  1.534323E-05  6.585677E+02  6.585677E+02  3.884376E+11
                       (31,01,13)  6.190023E-03  3.933611E-04  2.639326E-03  2.592364E-02
        87 0001-01-01 07:15:00.00  1.592743E-05  6.585677E+02  6.585677E+02  3.884376E+11
                       (04,01,13)  6.308093E-03  4.001221E-04  2.685422E-03  2.638263E-02
        88 0001-01-01 07:20:00.00  1.652557E-05  6.585677E+02  6.585677E+02  3.884376E+11
                       (04,01,13)  6.426939E-03  4.068967E-04  2.731448E-03  2.684419E-02
        89 0001-01-01 07:25:00.00  1.713774E-05  6.585677E+02  6.585677E+02  3.884376E+11
                       (04,01,13)  6.546556E-03  4.136849E-04  2.777189E-03  2.730831E-02
        90 0001-01-01 07:30:00.00  1.776403E-05  6.585677E+02  6.585677E+02  3.884376E+11
                       (04,01,13)  6.666938E-03  4.204836E-04  2.822659E-03  2.777497E-02
        91 0001-01-01 07:35:00.00  1.840455E-05  6.585677E+02  6.585677E+02  3.884376E+11
                       (04,01,13)  6.788078E-03  4.272886E-04  2.868044E-03  2.824414E-02
        92 0001-01-01 07:40:00.00  1.905937E-05  6.585677E+02  6.585677E+02  3.884376E+11
                       (04,01,13)  6.909970E-03  4.340975E-04  2.913548E-03  2.871579E-02
        93 0001-01-01 07:45:00.00  1.972859E-05  6.585677E+02  6.585677E+02  3.884376E+11
                       (04,01,13)  7.032609E-03  4.409100E-04  2.959306E-03  2.918992E-02
        94 0001-01-01 07:50:00.00  2.041228E-05  6.585677E+02  6.585677E+02  3.884376E+11
                       (04,01,13)  7.155989E-03  4.477290E-04  3.005330E-03  2.966649E-02
        95 0001-01-01 07:55:00.00  2.111052E-05  6.585677E+02  6.585677E+02  3.884376E+11
                       (04,01,13)  7.280103E-03  4.545587E-04  3.051493E-03  3.014549E-02
        96 0001-01-01 08:00:00.00  2.182339E-05  6.585677E+02  6.585677E+02  3.884376E+11
                       (04,01,13)  7.404947E-03  4.614022E-04  3.097581E-03  3.062691E-02
        97 0001-01-01 08:05:00.00  2.255097E-05  6.585677E+02  6.585677E+02  3.884376E+11
                       (04,01,13)  7.530513E-03  4.682588E-04  3.143450E-03  3.111072E-02
        98 0001-01-01 08:10:00.00  2.329332E-05  6.585677E+02  6.585677E+02  3.884376E+11
                       (04,01,13)  7.656797E-03  4.751242E-04  3.189155E-03  3.159689E-02
        99 0001-01-01 08:15:00.00  2.405051E-05  6.585677E+02  6.585677E+02  3.884376E+11
                       (04,01,13)  7.783792E-03  4.819942E-04  3.234912E-03  3.208542E-02
       100 0001-01-01 08:20:00.00  2.482262E-05  6.585677E+02  6.585677E+02  3.884376E+11
                       (04,01,13)  7.911493E-03  4.888671E-04  3.280941E-03  3.257627E-02
       101 0001-01-01 08:25:00.00  2.560969E-05  6.585677E+02  6.585677E+02  3.884376E+11
                       (04,01,13)  8.039894E-03  4.957445E-04  3.327325E-03  3.306943E-02
       102 0001-01-01 08:30:00.00  2.641179E-05  6.585677E+02  6.585677E+02  3.884376E+11
                       (04,01,13)  8.168990E-03  5.026301E-04  3.373984E-03  3.356489E-02
       103 0001-01-01 08:35:00.00  2.722898E-05  6.585677E+02  6.585677E+02  3.884376E+11
                       (04,01,13)  8.298775E-03  5.095282E-04  3.420729E-03  3.406261E-02
       104 0001-01-01 08:40:00.00  2.806130E-05  6.585677E+02  6.585677E+02  3.884376E+11
                       (04,01,13)  8.429244E-03  5.164414E-04  3.467346E-03  3.456260E-02
       105 0001-01-01 08:45:00.00  2.890881E-05  6.585677E+02  6.585677E+02  3.884376E+11
                       (34,01,12)  7.880070E-03  4.741870E-04  4.243501E-03  3.506482E-02
       106 0001-01-01 08:50:00.00  2.977154E-05  6.585677E+02  6.585677E+02  3.884376E+11
                       (24,01,12)  8.004706E-03  4.805811E-04  4.299611E-03  3.556925E-02
       107 0001-01-01 08:55:00.00  3.064953E-05  6.585677E+02  6.585677E+02  3.884376E+11
                       (24,01,12)  8.130007E-03  4.869820E-04  4.355742E-03  3.607588E-02
       108 0001-01-01 09:00:00.00  3.154284E-05  6.585677E+02  6.585677E+02  3.884376E+11
                       (24,01,12)  8.255970E-03  4.933882E-04  4.412078E-03  3.658468E-02
       109 0001-01-01 09:05:00.00  3.245149E-05  6.585677E+02  6.585677E+02  3.884376E+11
                       (04,01,12)  8.382588E-03  4.998011E-04  4.468686E-03  3.709565E-02
       110 0001-01-01 09:10:00.00  3.337552E-05  6.585677E+02  6.585677E+02  3.884376E+11
                       (24,01,12)  8.509856E-03  5.062236E-04  4.525498E-03  3.760875E-02
       111 0001-01-01 09:15:00.00  3.431496E-05  6.585677E+02  6.585677E+02  3.884376E+11
                       (24,01,12)  8.637770E-03  5.126584E-04  4.582376E-03  3.812398E-02
       112 0001-01-01 09:20:00.00  3.526985E-05  6.585677E+02  6.585677E+02  3.884376E+11
                       (40,01,12)  8.766323E-03  5.191063E-04  4.639200E-03  3.864131E-02
       113 0001-01-01 09:25:00.00  3.624021E-05  6.585677E+02  6.585677E+02  3.884376E+11
                       (24,01,12)  8.895512E-03  5.255657E-04  4.695929E-03  3.916073E-02
       114 0001-01-01 09:30:00.00  3.722608E-05  6.585677E+02  6.585677E+02  3.884376E+11
                       (24,01,12)  9.025330E-03  5.320333E-04  4.752632E-03  3.968222E-02
       115 0001-01-01 09:35:00.00  3.822748E-05  6.585677E+02  6.585677E+02  3.884376E+11
                       (04,01,12)  9.155773E-03  5.385059E-04  4.809457E-03  4.020575E-02
       116 0001-01-01 09:40:00.00  3.924443E-05  6.585677E+02  6.585677E+02  3.884376E+11
                       (24,01,12)  9.286835E-03  5.449829E-04  4.866536E-03  4.073132E-02
       117 0001-01-01 09:45:00.00  4.027695E-05  6.585677E+02  6.585677E+02  3.884376E+11
                       (24,01,12)  9.418513E-03  5.514666E-04  4.923890E-03  4.125890E-02
       118 0001-01-01 09:50:00.00  4.132507E-05  6.585677E+02  6.585677E+02  3.884376E+11
                       (03,01,12)  9.550800E-03  5.579607E-04  4.981402E-03  4.178848E-02
       119 0001-01-01 09:55:00.00  4.238878E-05  6.585677E+02  6.585677E+02  3.884376E+11
                       (03,01,12)  9.683693E-03  5.644681E-04  5.038895E-03  4.232004E-02
       120 0001-01-01 10:00:00.00  4.346811E-05  6.585677E+02  6.585677E+02  3.884376E+11
                       (03,01,12)  9.817185E-03  5.709890E-04  5.096240E-03  4.285357E-02
       121 0001-01-01 10:05:00.00  4.456307E-05  6.585677E+02  6.585677E+02  3.884376E+11
                       (24,01,12)  9.951273E-03  5.775212E-04  5.153424E-03  4.338904E-02
       122 0001-01-01 10:10:00.00  4.567366E-05  6.585677E+02  6.585677E+02  3.884376E+11
                       (03,01,12)  1.008595E-02  5.840610E-04  5.210540E-03  4.392644E-02
       123 0001-01-01 10:15:00.00  4.679989E-05  6.585677E+02  6.585677E+02  3.884376E+11
                       (40,01,12)  1.022121E-02  5.906055E-04  5.267745E-03  4.446576E-02
       124 0001-01-01 10:20:00.00  4.794178E-05  6.585677E+02  6.585677E+02  3.884376E+11
                       (03,01,12)  1.035706E-02  5.971536E-04  5.325164E-03  4.500696E-02
       125 0001-01-01 10:25:00.00  4.909932E-05  6.585677E+02  6.585677E+02  3.884376E+11
                       (03,01,12)  1.049348E-02  6.037073E-04  5.382823E-03  4.555004E-02
       126 0001-01-01 10:30:00.00  5.027253E-05  6.585677E+02  6.585677E+02  3.884376E+11
                       (03,01,12)  1.063047E-02  6.102692E-04  5.440632E-03  4.609499E-02
       127 0001-01-01 10:35:00.00  5.146141E-05  6.585677E+02  6.585677E+02  3.884376E+11
                       (03,01,12)  1.076803E-02  6.168412E-04  5.498453E-03  4.664178E-02
       128 0001-01-01 10:40:00.00  5.266596E-05  6.585677E+02  6.585677E+02  3.884376E+11
                       (03,01,12)  1.090615E-02  6.234229E-04  5.556196E-03  4.719040E-02
       129 0001-01-01 10:45:00.00  5.388621E-05  6.585677E+02  6.585678E+02  3.884376E+11
                       (25,01,12)  1.104483E-02  6.300121E-04  5.613870E-03  4.774083E-02
       130 0001-01-01 10:50:00.00  5.512213E-05  6.585677E+02  6.585678E+02  3.884376E+11
                       (25,01,12)  1.118406E-02  6.366061E-04  5.671569E-03  4.829305E-02
       131 0001-01-01 10:55:00.00  5.637375E-05  6.585677E+02  6.585678E+02  3.884376E+11
                       (25,01,12)  1.132384E-02  6.432032E-04  5.729401E-03  4.884706E-02
       132 0001-01-01 11:00:00.00  5.764105E-05  6.585677E+02  6.585678E+02  3.884376E+11
                       (25,01,12)  1.146416E-02  6.498040E-04  5.787425E-03  4.940283E-02
       133 0001-01-01 11:05:00.00  5.892404E-05  6.585677E+02  6.585678E+02  3.884376E+11
                       (20,01,12)  1.160502E-02  6.564105E-04  5.845611E-03  4.996034E-02
       134 0001-01-01 11:10:00.00  6.022272E-05  6.585677E+02  6.585678E+02  3.884376E+11
                       (25,01,12)  1.174642E-02  6.630256E-04  5.903845E-03  5.051959E-02
       135 0001-01-01 11:15:00.00  6.153707E-05  6.585677E+02  6.585678E+02  3.884376E+11
                       (25,01,12)  1.188835E-02  6.696508E-04  5.961990E-03  5.108056E-02
       136 0001-01-01 11:20:00.00  6.286710E-05  6.585677E+02  6.585678E+02  3.884376E+11
                       (25,01,12)  1.203080E-02  6.762851E-04  6.019974E-03  5.164323E-02
       137 0001-01-01 11:25:00.00  6.421281E-05  6.585677E+02  6.585678E+02  3.884376E+11
                       (20,01,12)  1.217378E-02  6.829254E-04  6.077835E-03  5.220759E-02
       138 0001-01-01 11:30:00.00  6.557419E-05  6.585677E+02  6.585678E+02  3.884376E+11
                       (13,01,12)  1.231727E-02  6.895687E-04  6.135697E-03  5.277361E-02
       139 0001-01-01 11:35:00.00  6.695125E-05  6.585677E+02  6.585678E+02  3.884376E+11
                       (20,01,12)  1.246128E-02  6.962130E-04  6.193690E-03  5.334128E-02
       140 0001-01-01 11:40:00.00  6.834398E-05  6.585677E+02  6.585678E+02  3.884376E+11
                       (20,01,12)  1.260579E-02  7.028586E-04  6.251883E-03  5.391060E-02
       141 0001-01-01 11:45:00.00  6.975239E-05  6.585677E+02  6.585678E+02  3.884376E+11
                       (25,01,12)  1.275081E-02  7.095074E-04  6.310249E-03  5.448153E-02
       142 0001-01-01 11:50:00.00  7.117648E-05  6.585677E+02  6.585678E+02  3.884376E+11
                       (17,01,12)  1.289633E-02  7.161616E-04  6.368688E-03  5.505408E-02
       143 0001-01-01 11:55:00.00  7.261626E-05  6.585677E+02  6.585678E+02  3.884376E+11
                       (17,01,12)  1.304235E-02  7.228224E-04  6.427088E-03  5.562822E-02
       144 0001-01-01 12:00:00.00  7.407172E-05  6.585677E+02  6.585678E+02  3.884376E+11
                       (16,01,12)  1.318886E-02  7.294888E-04  6.485391E-03  5.620394E-02
      WRT_HIS     - wrote history     fields (Index=1,1) in record = 0000003
      WRT_AVG     - wrote averaged    fields             in record = 0000002
      WRT_DIAGS   - wrote diagnostics fields             in record = 0000002
      WRT_RST     - wrote re-start    fields (Index=1,1) in record = 0000002
       145 0001-01-01 12:05:00.00  7.554288E-05  6.585677E+02  6.585678E+02  3.884376E+11
                       (16,01,12)  1.333585E-02  7.361585E-04  6.543628E-03  5.678122E-02
       146 0001-01-01 12:10:00.00  7.702973E-05  6.585677E+02  6.585678E+02  3.884376E+11
                       (06,01,12)  1.348333E-02  7.428295E-04  6.601890E-03  5.736005E-02
       147 0001-01-01 12:15:00.00  7.853229E-05  6.585677E+02  6.585678E+02  3.884376E+11
                       (16,01,12)  1.363129E-02  7.495011E-04  6.660259E-03  5.794041E-02
       148 0001-01-01 12:20:00.00  8.005055E-05  6.585677E+02  6.585678E+02  3.884376E+11
                       (06,01,12)  1.377972E-02  7.561743E-04  6.718750E-03  5.852230E-02
[...]
       203 0001-01-01 16:55:00.00  1.887766E-04  6.585677E+02  6.585679E+02  3.884376E+11
                       (03,01,12)  2.256350E-02  1.120359E-03  9.893124E-03  9.246780E-02
       204 0001-01-01 17:00:00.00  1.912526E-04  6.585677E+02  6.585679E+02  3.884376E+11
                       (32,01,12)  2.273257E-02  1.126779E-03  9.949164E-03  9.311352E-02
       205 0001-01-01 17:05:00.00  1.937488E-04  6.585677E+02  6.585679E+02  3.884376E+11
                       (29,01,12)  2.290192E-02  1.133189E-03  1.000504E-02  9.376004E-02
       206 0001-01-01 17:10:00.00  1.962652E-04  6.585677E+02  6.585679E+02  3.884376E+11
                       (07,01,12)  2.307154E-02  1.139588E-03  1.006071E-02  9.440733E-02
       207 0001-01-01 17:15:00.00  1.988022E-04  6.585677E+02  6.585679E+02  3.884376E+11
                       (07,01,12)  2.324142E-02  1.145975E-03  1.011618E-02  9.505540E-02
       208 0001-01-01 17:20:00.00  2.013598E-04  6.585677E+02  6.585679E+02  3.884376E+11
                       (14,01,12)  2.341156E-02  1.152348E-03  1.017149E-02  9.570422E-02
       209 0001-01-01 17:25:00.00  2.039383E-04  6.585677E+02  6.585679E+02  3.884376E+11
                       (07,01,12)  2.358196E-02  1.158706E-03  1.022670E-02  9.635378E-02
       210 0001-01-01 17:30:00.00  2.065378E-04  6.585677E+02  6.585679E+02  3.884376E+11
                       (32,01,12)  2.375262E-02  1.165048E-03  1.028185E-02  9.700409E-02
       211 0001-01-01 17:35:00.00  2.091585E-04  6.585677E+02  6.585679E+02  3.884376E+11
                       (32,01,12)  2.392353E-02  1.171376E-03  1.033693E-02  9.765511E-02
       212 0001-01-01 17:40:00.00  2.118006E-04  6.585677E+02  6.585679E+02  3.884376E+11
                       (39,01,12)  2.409468E-02  1.177690E-03  1.039191E-02  9.830685E-02
       213 0001-01-01 17:45:00.00  2.144643E-04  6.585677E+02  6.585679E+02  3.884376E+11
                       (11,01,12)  2.426608E-02  1.183990E-03  1.044675E-02  9.895929E-02
       214 0001-01-01 17:50:00.00  2.171497E-04  6.585677E+02  6.585679E+02  3.884376E+11
                       (04,01,12)  2.443773E-02  1.190275E-03  1.050143E-02  9.961242E-02
       215 0001-01-01 17:55:00.00  2.198572E-04  6.585677E+02  6.585679E+02  3.884376E+11
                       (11,01,12)  2.460961E-02  1.196545E-03  1.055595E-02  1.002662E-01
       216 0001-01-01 18:00:00.00  2.225869E-04  6.585677E+02  6.585679E+02  3.884376E+11
                       (04,01,12)  2.478173E-02  1.202797E-03  1.061036E-02  1.009207E-01
      WRT_HIS     - wrote history     fields (Index=1,1) in record = 0000004
      WRT_AVG     - wrote averaged    fields             in record = 0000003
      WRT_DIAGS   - wrote diagnostics fields             in record = 0000003
      WRT_RST     - wrote re-start    fields (Index=1,1) in record = 0000001
       217 0001-01-01 18:05:00.00  2.253389E-04  6.585677E+02  6.585679E+02  3.884376E+11
                       (11,01,12)  2.495409E-02  1.209033E-03  1.066468E-02  1.015758E-01
       218 0001-01-01 18:10:00.00  2.281135E-04  6.585677E+02  6.585679E+02  3.884376E+11
                       (11,01,12)  2.512667E-02  1.215252E-03  1.071892E-02  1.022316E-01
       219 0001-01-01 18:15:00.00  2.309110E-04  6.585677E+02  6.585679E+02  3.884376E+11
                       (11,01,12)  2.529948E-02  1.221455E-03  1.077304E-02  1.028880E-01
       220 0001-01-01 18:20:00.00  2.337314E-04  6.585677E+02  6.585679E+02  3.884376E+11
                       (11,01,12)  2.547252E-02  1.227643E-03  1.082699E-02  1.035451E-01
       221 0001-01-01 18:25:00.00  2.365750E-04  6.585677E+02  6.585679E+02  3.884376E+11
                       (11,01,12)  2.564578E-02  1.233816E-03  1.088072E-02  1.042027E-01
       222 0001-01-01 18:30:00.00  2.394419E-04  6.585677E+02  6.585679E+02  3.884376E+11
                       (11,01,12)  2.581925E-02  1.239973E-03  1.093422E-02  1.048610E-01
       223 0001-01-01 18:35:00.00  2.423325E-04  6.585677E+02  6.585679E+02  3.884376E+11
                       (04,01,12)  2.599294E-02  1.246113E-03  1.098752E-02  1.055198E-01
       224 0001-01-01 18:40:00.00  2.452470E-04  6.585677E+02  6.585679E+02  3.884376E+11
                       (11,01,12)  2.616684E-02  1.252234E-03  1.104066E-02  1.061793E-01
       225 0001-01-01 18:45:00.00  2.481854E-04  6.585677E+02  6.585679E+02  3.884376E+11
                       (04,01,12)  2.634095E-02  1.258336E-03  1.109369E-02  1.068393E-01
       226 0001-01-01 18:50:00.00  2.511481E-04  6.585677E+02  6.585679E+02  3.884376E+11
                       (11,01,12)  2.651527E-02  1.264419E-03  1.114663E-02  1.074998E-01
       227 0001-01-01 18:55:00.00  2.541353E-04  6.585677E+02  6.585679E+02  3.884376E+11
                       (18,01,12)  2.668979E-02  1.270483E-03  1.119947E-02  1.081610E-01
       228 0001-01-01 19:00:00.00  2.571472E-04  6.585677E+02  6.585679E+02  3.884376E+11
                       (18,01,12)  2.686450E-02  1.276528E-03  1.125216E-02  1.088226E-01
       229 0001-01-01 19:05:00.00  2.601840E-04  6.585677E+02  6.585679E+02  3.884376E+11
                       (21,01,12)  2.703942E-02  1.282555E-03  1.130467E-02  1.094848E-01
       230 0001-01-01 19:10:00.00  2.632460E-04  6.585677E+02  6.585679E+02  3.884376E+11
                       (17,01,12)  2.721453E-02  1.288564E-03  1.135699E-02  1.101475E-01
       231 0001-01-01 19:15:00.00  2.663333E-04  6.585677E+02  6.585680E+02  3.884376E+11
                       (17,01,12)  2.738983E-02  1.294552E-03  1.140913E-02  1.108107E-01
       232 0001-01-01 19:20:00.00  2.694463E-04  6.585677E+02  6.585680E+02  3.884376E+11
                       (25,01,12)  2.756532E-02  1.300521E-03  1.146112E-02  1.114744E-01
       233 0001-01-01 19:25:00.00  2.725851E-04  6.585677E+02  6.585680E+02  3.884376E+11
                       (17,01,12)  2.774099E-02  1.306468E-03  1.151297E-02  1.121385E-01
       234 0001-01-01 19:30:00.00  2.757499E-04  6.585677E+02  6.585680E+02  3.884376E+11
                       (19,01,12)  2.791684E-02  1.312396E-03  1.156467E-02  1.128032E-01
       235 0001-01-01 19:35:00.00  2.789410E-04  6.585677E+02  6.585680E+02  3.884376E+11
                       (19,01,12)  2.809288E-02  1.318305E-03  1.161620E-02  1.134683E-01
       236 0001-01-01 19:40:00.00  2.821586E-04  6.585677E+02  6.585680E+02  3.884376E+11
                       (04,01,12)  2.826909E-02  1.324195E-03  1.166750E-02  1.141339E-01
       237 0001-01-01 19:45:00.00  2.854029E-04  6.585677E+02  6.585680E+02  3.884376E+11
                       (19,01,12)  2.844547E-02  1.330065E-03  1.171856E-02  1.147999E-01
       238 0001-01-01 19:50:00.00  2.886741E-04  6.585677E+02  6.585680E+02  3.884376E+11
                       (18,01,12)  2.862202E-02  1.335915E-03  1.176938E-02  1.154664E-01
       239 0001-01-01 19:55:00.00  2.919725E-04  6.585677E+02  6.585680E+02  3.884376E+11
                       (18,01,12)  2.879874E-02  1.341743E-03  1.182001E-02  1.161332E-01
       240 0001-01-01 20:00:00.00  2.952983E-04  6.585677E+02  6.585680E+02  3.884376E+11
                       (18,01,12)  2.897562E-02  1.347548E-03  1.187049E-02  1.168005E-01
       241 0001-01-01 20:05:00.00  2.986518E-04  6.585677E+02  6.585680E+02  3.884376E+11
                       (18,01,12)  2.915266E-02  1.353331E-03  1.192084E-02  1.174682E-01
       242 0001-01-01 20:10:00.00  3.020331E-04  6.585677E+02  6.585680E+02  3.884376E+11
                       (18,01,12)  2.932987E-02  1.359091E-03  1.197107E-02  1.181363E-01
       243 0001-01-01 20:15:00.00  3.054425E-04  6.585677E+02  6.585680E+02  3.884376E+11
                       (18,01,12)  2.950722E-02  1.364829E-03  1.202115E-02  1.188047E-01
       244 0001-01-01 20:20:00.00  3.088803E-04  6.585677E+02  6.585680E+02  3.884376E+11
                       (18,01,12)  2.968473E-02  1.370545E-03  1.207104E-02  1.194735E-01
       245 0001-01-01 20:25:00.00  3.123466E-04  6.585677E+02  6.585680E+02  3.884376E+11
                       (18,01,12)  2.986239E-02  1.376240E-03  1.212072E-02  1.201427E-01
       246 0001-01-01 20:30:00.00  3.158417E-04  6.585677E+02  6.585680E+02  3.884376E+11
                       (36,01,12)  3.004020E-02  1.381913E-03  1.217017E-02  1.208122E-01
       247 0001-01-01 20:35:00.00  3.193658E-04  6.585677E+02  6.585680E+02  3.884376E+11
                       (36,01,12)  3.021815E-02  1.387563E-03  1.221941E-02  1.214821E-01
       248 0001-01-01 20:40:00.00  3.229192E-04  6.585677E+02  6.585680E+02  3.884376E+11
                       (36,01,12)  3.039624E-02  1.393190E-03  1.226847E-02  1.221523E-01
       249 0001-01-01 20:45:00.00  3.265021E-04  6.585677E+02  6.585680E+02  3.884376E+11
                       (36,01,12)  3.057446E-02  1.398794E-03  1.231735E-02  1.228228E-01
       250 0001-01-01 20:50:00.00  3.301146E-04  6.585677E+02  6.585680E+02  3.884376E+11
                       (36,01,12)  3.075283E-02  1.404375E-03  1.236604E-02  1.234936E-01
       251 0001-01-01 20:55:00.00  3.337571E-04  6.585677E+02  6.585680E+02  3.884376E+11
                       (36,01,12)  3.093132E-02  1.409934E-03  1.241451E-02  1.241648E-01
       252 0001-01-01 21:00:00.00  3.374297E-04  6.585677E+02  6.585680E+02  3.884376E+11
                       (36,01,12)  3.110994E-02  1.415471E-03  1.246274E-02  1.248362E-01
       253 0001-01-01 21:05:00.00  3.411326E-04  6.585677E+02  6.585680E+02  3.884376E+11
                       (36,01,12)  3.128869E-02  1.420985E-03  1.251072E-02  1.255079E-01
       254 0001-01-01 21:10:00.00  3.448661E-04  6.585677E+02  6.585680E+02  3.884376E+11
                       (36,01,12)  3.146756E-02  1.426474E-03  1.255848E-02  1.261798E-01
       255 0001-01-01 21:15:00.00  3.486304E-04  6.585677E+02  6.585680E+02  3.884376E+11
                       (36,01,12)  3.164655E-02  1.431939E-03  1.260605E-02  1.268520E-01
       256 0001-01-01 21:20:00.00  3.524257E-04  6.585677E+02  6.585680E+02  3.884376E+11
                       (36,01,12)  3.182566E-02  1.437379E-03  1.265347E-02  1.275245E-01
       257 0001-01-01 21:25:00.00  3.562522E-04  6.585677E+02  6.585680E+02  3.884376E+11
                       (36,01,12)  3.200489E-02  1.442794E-03  1.270075E-02  1.281972E-01
       258 0001-01-01 21:30:00.00  3.601102E-04  6.585677E+02  6.585681E+02  3.884376E+11
                       (36,01,12)  3.218422E-02  1.448184E-03  1.274786E-02  1.288701E-01
       259 0001-01-01 21:35:00.00  3.639999E-04  6.585677E+02  6.585681E+02  3.884376E+11
                       (36,01,12)  3.236367E-02  1.453550E-03  1.279478E-02  1.295432E-01
       260 0001-01-01 21:40:00.00  3.679215E-04  6.585677E+02  6.585681E+02  3.884376E+11
                       (36,01,12)  3.254321E-02  1.458893E-03  1.284148E-02  1.302165E-01
       261 0001-01-01 21:45:00.00  3.718752E-04  6.585677E+02  6.585681E+02  3.884376E+11
                       (36,01,12)  3.272287E-02  1.464212E-03  1.288792E-02  1.308901E-01
       262 0001-01-01 21:50:00.00  3.758612E-04  6.585677E+02  6.585681E+02  3.884376E+11
                       (36,01,12)  3.290262E-02  1.469507E-03  1.293413E-02  1.315638E-01
       263 0001-01-01 21:55:00.00  3.798797E-04  6.585677E+02  6.585681E+02  3.884376E+11
                       (36,01,12)  3.308247E-02  1.474778E-03  1.298012E-02  1.322377E-01
       264 0001-01-01 22:00:00.00  3.839308E-04  6.585677E+02  6.585681E+02  3.884376E+11
                       (36,01,12)  3.326241E-02  1.480023E-03  1.302589E-02  1.329117E-01
       265 0001-01-01 22:05:00.00  3.880149E-04  6.585677E+02  6.585681E+02  3.884376E+11
                       (36,01,12)  3.344245E-02  1.485244E-03  1.307147E-02  1.335860E-01
       266 0001-01-01 22:10:00.00  3.921321E-04  6.585677E+02  6.585681E+02  3.884376E+11
                       (21,01,12)  3.362257E-02  1.490441E-03  1.311683E-02  1.342603E-01
       267 0001-01-01 22:15:00.00  3.962826E-04  6.585677E+02  6.585681E+02  3.884376E+11
                       (09,01,12)  3.380278E-02  1.495613E-03  1.316197E-02  1.349348E-01
       268 0001-01-01 22:20:00.00  4.004665E-04  6.585677E+02  6.585681E+02  3.884376E+11
                       (09,01,12)  3.398307E-02  1.500761E-03  1.320686E-02  1.356094E-01
       269 0001-01-01 22:25:00.00  4.046841E-04  6.585677E+02  6.585681E+02  3.884376E+11
                       (09,01,12)  3.416345E-02  1.505884E-03  1.325152E-02  1.362842E-01
       270 0001-01-01 22:30:00.00  4.089356E-04  6.585677E+02  6.585681E+02  3.884376E+11
                       (09,01,12)  3.434389E-02  1.510981E-03  1.329598E-02  1.369590E-01
       271 0001-01-01 22:35:00.00  4.132211E-04  6.585677E+02  6.585681E+02  3.884376E+11
                       (09,01,12)  3.452442E-02  1.516052E-03  1.334026E-02  1.376339E-01
       272 0001-01-01 22:40:00.00  4.175409E-04  6.585677E+02  6.585681E+02  3.884376E+11
                       (09,01,12)  3.470501E-02  1.521097E-03  1.338437E-02  1.383089E-01
       273 0001-01-01 22:45:00.00  4.218951E-04  6.585677E+02  6.585681E+02  3.884376E+11
                       (09,01,12)  3.488568E-02  1.526116E-03  1.342832E-02  1.389840E-01
       274 0001-01-01 22:50:00.00  4.262839E-04  6.585677E+02  6.585681E+02  3.884376E+11
                       (39,01,12)  3.506640E-02  1.531111E-03  1.347207E-02  1.396592E-01
       275 0001-01-01 22:55:00.00  4.307075E-04  6.585677E+02  6.585681E+02  3.884376E+11
                       (09,01,12)  3.524720E-02  1.536081E-03  1.351560E-02  1.403344E-01
       276 0001-01-01 23:00:00.00  4.351661E-04  6.585677E+02  6.585681E+02  3.884376E+11
                       (21,01,12)  3.542805E-02  1.541027E-03  1.355888E-02  1.410096E-01
       277 0001-01-01 23:05:00.00  4.396597E-04  6.585677E+02  6.585681E+02  3.884376E+11
                       (09,01,12)  3.560896E-02  1.545949E-03  1.360190E-02  1.416849E-01
       278 0001-01-01 23:10:00.00  4.441887E-04  6.585677E+02  6.585681E+02  3.884376E+11
                       (21,01,12)  3.578992E-02  1.550846E-03  1.364467E-02  1.423602E-01
       279 0001-01-01 23:15:00.00  4.487530E-04  6.585677E+02  6.585681E+02  3.884376E+11
                       (09,01,12)  3.597093E-02  1.555717E-03  1.368723E-02  1.430355E-01
       280 0001-01-01 23:20:00.00  4.533529E-04  6.585677E+02  6.585682E+02  3.884376E+11
                       (09,01,12)  3.615200E-02  1.560564E-03  1.372958E-02  1.437108E-01
       281 0001-01-01 23:25:00.00  4.579885E-04  6.585677E+02  6.585682E+02  3.884376E+11
                       (39,01,12)  3.633310E-02  1.565385E-03  1.377173E-02  1.443862E-01
       282 0001-01-01 23:30:00.00  4.626600E-04  6.585677E+02  6.585682E+02  3.884376E+11
                       (39,01,12)  3.651426E-02  1.570181E-03  1.381367E-02  1.450615E-01
       283 0001-01-01 23:35:00.00  4.673675E-04  6.585677E+02  6.585682E+02  3.884376E+11
                       (15,01,12)  3.669545E-02  1.574953E-03  1.385538E-02  1.457367E-01
       284 0001-01-01 23:40:00.00  4.721112E-04  6.585677E+02  6.585682E+02  3.884376E+11
                       (29,01,12)  3.687668E-02  1.579700E-03  1.389688E-02  1.464120E-01
       285 0001-01-01 23:45:00.00  4.768911E-04  6.585677E+02  6.585682E+02  3.884376E+11
                       (29,01,12)  3.705794E-02  1.584421E-03  1.393816E-02  1.470872E-01
       286 0001-01-01 23:50:00.00  4.817076E-04  6.585677E+02  6.585682E+02  3.884376E+11
                       (29,01,12)  3.723923E-02  1.589117E-03  1.397925E-02  1.477623E-01
       287 0001-01-01 23:55:00.00  4.865605E-04  6.585677E+02  6.585682E+02  3.884376E+11
                       (29,01,12)  3.742056E-02  1.593787E-03  1.402017E-02  1.484374E-01
       288 0001-01-02 00:00:00.00  4.914503E-04  6.585677E+02  6.585682E+02  3.884376E+11
                       (29,01,12)  3.760191E-02  1.598432E-03  1.406091E-02  1.491124E-01
      WRT_HIS     - wrote history     fields (Index=1,1) in record = 0000005
      WRT_AVG     - wrote averaged    fields             in record = 0000004
      WRT_DIAGS   - wrote diagnostics fields             in record = 0000004
      WRT_RST     - wrote re-start    fields (Index=1,1) in record = 0000002

 Elapsed CPU time (seconds):

 Thread #    0 CPU:      51.418
 Total:                  51.418

 Nonlinear model elapsed CPU time profile, Grid: 01

  Allocation and array initialization ..............         0.093  ( 0.1799 %)
  Ocean state initialization .......................         0.009  ( 0.0171 %)
  Reading of input data ............................         0.001  ( 0.0013 %)
  Processing of input data .........................         0.049  ( 0.0948 %)
  Processing of output time averaged data ..........         6.543  (12.7245 %)
  Computation of vertical boundary conditions ......         0.010  ( 0.0197 %)
  Computation of global information integrals ......         0.200  ( 0.3888 %)
  Writing of output data ...........................         0.433  ( 0.8416 %)
  Model 2D kernel ..................................        12.521  (24.3505 %)
  Lagrangian floats trajectories ...................         0.007  ( 0.0141 %)
  2D/3D coupling, vertical metrics .................         0.179  ( 0.3487 %)
  Omega vertical velocity ..........................         0.207  ( 0.4017 %)
  Equation of state for seawater ...................         0.127  ( 0.2466 %)
  Biological module, source/sink terms .............         6.876  (13.3718 %)
  3D equations right-side terms ....................         1.195  ( 2.3241 %)
  3D equations predictor step ......................         8.867  (17.2443 %)
  Pressure gradient ................................         0.554  ( 1.0769 %)
  Harmonic stress tensor, S-surfaces ...............         0.573  ( 1.1152 %)
  Corrector time-step for 3D momentum ..............         1.926  ( 3.7462 %)
  Corrector time-step for tracers ..................        10.237  (19.9088 %)
                                              Total:        50.604   98.4165

  Unique code regions profiled .....................        50.604   98.4165 %
  Residual, non-profiled code ......................         0.814    1.5835 %


 All percentages are with respect to total time =           51.418


>>>>>>>>>>>>>>>>>>>>>>>>>>>>>>>>>>>>>>>>>>>>>>>>>>>>>>>>>>>>>>>>>>>>>>>>>>>>>>>>

 Dynamic and Automatic memory (MB) usage for Grid 01:  41x80x16  tiling: 3x3

     tile          Dynamic        Automatic            USAGE

        0           167.93             1.65           169.58
        1             0.00             1.65             1.65
        2             0.00             1.57             1.57
        3             0.00             1.65             1.65
        4             0.00             1.65             1.65
        5             0.00             1.57             1.57
        6             0.00             1.60             1.60
        7             0.00             1.60             1.60
        8             0.00             1.52             1.52

    TOTAL           167.93            14.48           182.41

<<<<<<<<<<<<<<<<<<<<<<<<<<<<<<<<<<<<<<<<<<<<<<<<<<<<<<<<<<<<<<<<<<<<<<<<<<<<<<<<

 ROMS/TOMS - Output NetCDF summary for Grid 01:
             number of time records written in HISTORY file = 00000005
             number of time records written in RESTART file = 00000002
             number of time records written in AVERAGE file = 00000004
             number of time records written in STATION file = 00000289

 Analytical header files used:

     ROMS/Functionals/ana_biology.h
     ROMS/Functionals/ana_drag.h
     ROMS/Functionals/ana_btflux.h
     ROMS/Functionals/ana_grid.h
     /home/hadfield/ROMS/roms-test-mgh/upwelling/ana_initial.h
     ROMS/Functionals/ana_smflux.h
     ROMS/Functionals/ana_srflux.h
     ROMS/Functionals/ana_stflux.h
     ROMS/Functionals/ana_vmix.h

 Biology model header files used:

     /home/hadfield/ROMS/roms-test-mgh/upwelling/fennel.h

 ROMS/TOMS: DONE... Monday - June 10, 2019 -  4:29:31 PM
