 Coupled Input File name = coupling_test_head.in

 Model Coupling Parallel Threads:

   Ocean Model MPI nodes:   000 - 000
   Waves Model MPI nodes:   001 - 001


   Ocean Export: bath:SSH:Ubar:Vbar:ZO
   Waves Export: Wdir:Wamp:Wlen:Wptop:Wpbot:Wubot



 Model Input Parameters:  ROMS/TOMS version 3.6  
                          Monday - November 7, 2011 -  1:40:35 PM
 -----------------------------------------------------------------------------

 Sediment Test Headland Case

 Operating system : Linux
 CPU/hardware     : x86_64
 Compiler system  : gfortran
 Compiler command : /opt/mpich/ch-p4/bin/mpif90
 Compiler flags   : -frepack-arrays -O3 -I/home/hadfield/local/Linux-x86_64-thotter/include -ffree-form -ffree-line-length-none -ffree-form -ffree-line-length-none -ffree-form -ffr

 Input Script  : ocean_test_head.in

 SVN Root URL  : https:://myroms.org/svn/src
 SVN Revision  : exported

 Local Root    : /home/hadfield/ROMS/roms-new
 Header Dir    : /home/hadfield/ROMS/roms-test-local/test_head
 Header file   : test_head.h
 Analytical Dir: /home/hadfield/ROMS/roms-test-local/test_head

 Resolution, Grid 01: 0056x0026x010,  Parallel Nodes:   1,  Tiling: 001x001


 Physical Parameters, Grid: 01
 =============================

       1440  ntimes          Number of timesteps for 3-D equations.
     30.000  dt              Timestep size (s) for 3-D equations.
         20  ndtfast         Number of timesteps for 2-D equations between
                               each 3D timestep.
          1  ERstr           Starting ensemble/perturbation run number.
          1  ERend           Ending ensemble/perturbation run number.
          0  nrrec           Number of restart records to read from disk.
          T  LcycleRST       Switch to recycle time-records in restart file.
        120  nRST            Number of timesteps between the writing of data
                               into restart fields.
          1  ninfo           Number of timesteps between print of information
                               to standard output.
         30  nSTA            Number of timesteps between the writing of data
                               the stations file.
          T  ldefout         Switch to create a new output NetCDF file(s).
        120  nHIS            Number of timesteps between the writing fields
                               into history file.
 1.0000E-06  Akt_bak(01)     Background vertical mixing coefficient (m2/s)
                               for tracer 01: temp
 1.0000E-05  Akv_bak         Background vertical mixing coefficient (m2/s)
                               for momentum.
 5.0000E-06  Akk_bak         Background vertical mixing coefficient (m2/s)
                               for turbulent energy.
 5.0000E-06  Akp_bak         Background vertical mixing coefficient (m2/s)
                               for turbulent generic statistical field.
     -1.000  gls_p           GLS stability exponent.
      0.500  gls_m           GLS turbulent kinetic energy exponent.
     -1.000  gls_n           GLS turbulent length scale exponent.
 7.6000E-06  gls_Kmin        GLS minimum value of turbulent kinetic energy.
 1.0000E-12  gls_Pmin        GLS minimum value of dissipation.
 5.4770E-01  gls_cmu0        GLS stability coefficient.
 5.5500E-01  gls_c1          GLS shear production coefficient.
 8.3300E-01  gls_c2          GLS dissipation coefficient.
-6.0000E-01  gls_c3m         GLS stable buoyancy production coefficient.
 1.0000E+00  gls_c3p         GLS unstable buoyancy production coefficient.
 2.0000E+00  gls_sigk        GLS constant Schmidt number for TKE.
 2.0000E+00  gls_sigp        GLS constant Schmidt number for PSI.
   1400.000  charnok_alpha   Charnok factor for Zos calculation.
      0.500  zos_hsig_alpha  Factor for Zos calculation using Hsig(Awave).
      0.250  sz_alpha        Factor for Wave dissipation surface tke flux .
    100.000  crgban_cw       Factor for Craig/Banner surface tke flux.
 3.0000E-04  rdrg            Linear bottom drag coefficient (m/s).
 3.0000E-03  rdrg2           Quadratic bottom drag coefficient.
 3.0000E-03  Zob             Bottom roughness (m).
 2.0000E-02  Zos             Surface roughness (m).
 1.0000E-01  Dcrit           Minimum depth for wetting and drying (m).
          1  Vtransform      S-coordinate transformation equation.
          1  Vstretching     S-coordinate stretching function.
 1.0000E-01  theta_s         S-coordinate surface control parameter.
 8.0000E-01  theta_b         S-coordinate bottom  control parameter.
      0.100  Tcline          S-coordinate surface/bottom layer width (m) used
                               in vertical coordinate stretching.
   1024.000  rho0            Mean density (kg/m3) for Boussinesq approximation.
      0.000  dstart          Time-stamp assigned to model initialization (days).
      0.000  tide_start      Reference time origin for tidal forcing (days).
       0.00  time_ref        Reference time for units attribute (yyyymmdd.dd)
 0.0000E+00  Tnudg(01)       Nudging/relaxation time scale (days)
                               for tracer 01: temp
 0.0000E+00  Znudg           Nudging/relaxation time scale (days)
                               for free-surface.
 0.0000E+00  M2nudg          Nudging/relaxation time scale (days)
                               for 2D momentum.
 0.0000E+00  M3nudg          Nudging/relaxation time scale (days)
                               for 3D momentum.
 0.0000E+00  obcfac          Factor between passive and active
                               open boundary conditions.
          F  VolCons(1)      NLM western  edge boundary volume conservation.
          F  VolCons(2)      NLM southern edge boundary volume conservation.
          F  VolCons(3)      NLM eastern  edge boundary volume conservation.
          F  VolCons(4)      NLM northern edge boundary volume conservation.
     10.000  T0              Background potential temperature (C) constant.
     35.000  S0              Background salinity (PSU) constant.
   1024.000  R0              Background density (kg/m3) used in linear Equation
                               of State.
 1.7000E-04  Tcoef           Thermal expansion coefficient (1/Celsius).
 7.6000E-04  Scoef           Saline contraction coefficient (1/PSU).
     -1.000  gamma2          Slipperiness variable: free-slip (1.0) or 
                                                    no-slip (-1.0).
          T  Hout(idBath)    Write out time-dependent bathymetry.
          T  Hout(idFsur)    Write out free-surface.
          T  Hout(idUbar)    Write out 2D U-momentum component.
          T  Hout(idVbar)    Write out 2D V-momentum component.
          T  Hout(idUvel)    Write out 3D U-momentum component.
          T  Hout(idVvel)    Write out 3D V-momentum component.
          T  Hout(idWvel)    Write out W-momentum component.
          T  Hout(idOvel)    Write out omega vertical velocity.
          T  Hout(idTvar)    Write out tracer 01: temp
          T  Hout(idUsms)    Write out surface U-momentum stress.
          T  Hout(idVsms)    Write out surface V-momentum stress.
          T  Hout(idUbms)    Write out bottom U-momentum stress.
          T  Hout(idVbms)    Write out bottom V-momentum stress.
          T  Hout(idW2xx)    Write out 2D radiation stress, Sxx.
          T  Hout(idW2xy)    Write out 2D radiation stress, Sxy.
          T  Hout(idW2yy)    Write out 2D radiation stress, Syy.
          T  Hout(idU2rs)    Write out total 2D u-radiation stress.
          T  Hout(idV2rs)    Write out total 2D v-radiation stress.
          T  Hout(idU2Sd)    Write out 2D u-momentum stokes velocity.
          T  Hout(idV2Sd)    Write out 2D v-momentum stokes velocity.
          T  Hout(idW3xx)    Write out 3D radiation stress, Sxx.
          T  Hout(idW3xy)    Write out 3D radiation stress, Sxy.
          T  Hout(idW3yy)    Write out 3D radiation stress, Syy.
          T  Hout(idW3zx)    Write out 3D radiation stress, Szx.
          T  Hout(idW3zy)    Write out 3D radiation stress, Szy.
          T  Hout(idU3rs)    Write out total 3D u-radiation stress.
          T  Hout(idV3rs)    Write out total 3D v-radiation stress.
          T  Hout(idU3Sd)    Write out 3D u-momentum stokes velocity.
          T  Hout(idV3Sd)    Write out 3D v-momentum stokes velocity.
          T  Hout(idWamp)    Write out wave height.
          T  Hout(idWlen)    Write out wavelength.
          T  Hout(idWdir)    Write out wave direction.
          T  Hout(idWptp)    Write out wave surface period.
          T  Hout(idWpbt)    Write out wave bottom period.
          T  Hout(idWdis)    Write out wave dissipation.
          T  Hout(idBott)    Write out bottom property 01: grain_diameter
          T  Hout(idBott)    Write out bottom property 02: grain_density
          T  Hout(idBott)    Write out bottom property 03: settling_vel
          T  Hout(idBott)    Write out bottom property 04: erosion_stress
          T  Hout(idBott)    Write out bottom property 05: ripple_length
          T  Hout(idBott)    Write out bottom property 06: ripple_height
          T  Hout(idBott)    Write out bottom property 07: bed_wave_amp
          T  Hout(idBott)    Write out bottom property 09: Zo_app
          T  Hout(idBott)    Write out bottom property 10: Zo_Nik
          T  Hout(idBott)    Write out bottom property 11: Zo_bio
          T  Hout(idBott)    Write out bottom property 15: active_layer_thickness
          T  Hout(idTsur)    Write out surface net heat flux.
          T  Hout(idDano)    Write out density anomaly.
          T  Hout(idVvis)    Write out vertical viscosity: AKv.
          T  Hout(idTdif)    Write out vertical diffusion: AKt(itemp).

 Output/Input Files:

             Output Restart File:  ocean_rst.nc
             Output History File:  ocean_his.nc
            Output Stations File:  ocean_sta.nc
        Physical parameters File:  ocean_test_head.in
                 Input Grid File:  Data/test_head_curv_grd.nc
    Input Nonlinear Initial File:  Data/test_head_ini.nc
          Station positions File:  stations_test_head.in

 Tile partition information for Grid 01:  0056x0026x0010  tiling: 001x001

     tile     Istr     Iend     Jstr     Jend     Npts

        0        1       56        1       26    14560

 Tile minimum and maximum fractional grid coordinates:
   (interior points only)

     tile     Xmin     Xmax     Ymin     Ymax     grid

        0     0.50    56.50     0.50    26.50  RHO-points

        0     1.00    56.00     0.50    26.50    U-points

        0     0.50    56.50     1.00    26.00    V-points

 Maximum halo size in XI and ETA directions:

               HaloSizeI(1) =     201
               HaloSizeJ(1) =     111
                TileSide(1) =      61
                TileSize(1) =    1891



 Sediment Parameters, Grid: 01
 =============================


 Size     Sd50        Csed        Srho        Wsed        Erate       poros
 Class    (mm)       (kg/m3)     (kg/m3)     (mm/s)     (kg/m2/s)    (nondim)

   1    2.5000E-01  0.0000E+00  2.6500E+03  3.0000E+01  5.0000E-04  9.0000E-01

         tau_ce      tau_cd      nl_tnu2     nl_tnu4     Akt_bak      Tnudg
         (N/m2)      (N/m2)      (m2/s)      (m4/s)       (m2/s)      (day)

   1    1.9000E-01  6.0000E-02  0.0000E+00  0.0000E+00  5.0000E-06  0.0000E+00

         morph_fac
         (nondim)

   1    1.0000E+01

 New bed layer formed when deposition exceeds 0.10000E-01 (m).
 Two first layers are combined when 2nd layer smaller than 0.00000E+00 (m).
 Rate coefficient for bed load transport = 0.50000E-01

          T  Hout(idTvar)   Write out sediment01: sand_01
          T  Hout(idfrac)   Write out bed fraction, sediment 01: sandfrac_01
          T  Hout(idfrac)   Write out mass, sediment 01: sandmass_01
          T  Hout(idUbld)   Write out U-bedload, sediment 01: bedload_Usand_01
          T  Hout(idVbld)   Write out V-bedload, sediment 01: bedload_Vsand_01
          T  Hout(idSbed)   Write out BED property 01: bed_thickness
          T  Hout(idSbed)   Write out BED property 02: bed_age
          T  Hout(idSbed)   Write out BED property 03: bed_porosity
          T  Hout(idSbed)   Write out BED property 04: bed_biodiff


 Stations Parameters, Grid: 01
 =============================

         11  Nstation        Number of stations to write out into stations file.
          T  Sout(idbath)    Write out free-surface.
          T  Sout(idFsur)    Write out free-surface.
          T  Sout(idUbar)    Write out 2D U-momentum component.
          T  Sout(idVbar)    Write out 2D V-momentum component.
          T  Sout(idUvel)    Write out 3D U-momentum component.
          T  Sout(idVvel)    Write out 3D V-momentum component.
          T  Sout(idWvel)    Write out W-momentum component.
          T  Sout(idOvel)    Write out omega vertical velocity.
          T  Sout(idTvar)    Write out tracer 01: temp
          T  Sout(idTvar)    Write out tracer 02: sand_01
          T  Sout(idUsms)    Write out surface U-momentum stress.
          T  Sout(idVsms)    Write out surface V-momentum stress.
          T  Sout(idUbms)    Write out bottom U-momentum stress.
          T  Sout(idVbms)    Write out bottom V-momentum stress.
          T  Sout(idWamp)    Write out wave height.
          T  Sout(idWlen)    Write out wave length.
          T  Sout(idWdir)    Write out wave direction.
          T  Sout(idWptp)    Write out wave surface period.
          T  Sout(idWpbt)    Write out wave bottom period.
          T  Sout(idWdis)    Write out wave dissipation.
          T  Sout(idBott)    Write out bottom property 01: grain_diameter
          T  Sout(idBott)    Write out bottom property 02: grain_density
          T  Sout(idBott)    Write out bottom property 03: settling_vel
          T  Sout(idBott)    Write out bottom property 04: erosion_stress
          T  Sout(idBott)    Write out bottom property 05: ripple_length
          T  Sout(idBott)    Write out bottom property 06: ripple_height
          T  Sout(idBott)    Write out bottom property 07: bed_wave_amp
          T  Sout(idBott)    Write out bottom property 08: Zo_def
          T  Sout(idBott)    Write out bottom property 09: Zo_app
          T  Sout(idBott)    Write out bottom property 10: Zo_Nik
          T  Sout(idBott)    Write out bottom property 11: Zo_bio
          T  Sout(idBott)    Write out bottom property 12: Zo_bedform
          T  Sout(idBott)    Write out bottom property 13: Zo_bedload
          T  Sout(idBott)    Write out bottom property 14: Zo_wbl
          T  Sout(idBott)    Write out bottom property 15: active_layer_thickness
          T  Sout(idBott)    Write out bottom property 16: saltation
          T  Sout(idBott)    Write out bottom property 17: ero_flux
          T  Sout(idBott)    Write out bottom property 18: dep_net
          T  Sout(idVvis)    Write out vertical viscosity coefficient.
          T  Sout(idMtke)    Write out turbulent kinetic energy.
          T  Sout(idMtls)    Write out turbulent generic length-scale.

             Flag and positions for station 0001:  0    29.0000    3.0000
             Flag and positions for station 0002:  0    29.0000   11.0000
             Flag and positions for station 0003:  0    29.0000   25.0000
             Flag and positions for station 0004:  0    43.0000    9.0000
             Flag and positions for station 0005:  0    16.0000    9.0000
             Flag and positions for station 0006:  0     2.0000   24.0000
             Flag and positions for station 0007:  0    56.0000   24.0000
             Flag and positions for station 0008:  0    15.0000    2.0000
             Flag and positions for station 0009:  0    25.0000    2.0000
             Flag and positions for station 0010:  0    35.0000    2.0000
             Flag and positions for station 0011:  0    45.0000    2.0000

 Lateral Boundary Conditions: NLM
 ============================

 Variable               Grid    West Edge   South Edge  East Edge   North Edge
 ---------              ----    ----------  ----------  ----------  ----------

 zeta                     1     Clamped     Closed      Clamped     Closed

 ubar                     1     Reduced     Closed      Reduced     Closed

 vbar                     1     Reduced     Closed      Reduced     Closed

 u                        1     Radiation   Closed      Radiation   Closed

 v                        1     Radiation   Closed      Radiation   Closed

 temp                     1     Gradient    Closed      Gradient    Closed

 sand_01                  1     Gradient    Closed      Gradient    Closed

 tke                      1     Gradient    Closed      Gradient    Closed

 Activated C-preprocessing Options:

 TEST_HEAD           Sediment Test Headland Case
 ANA_BPFLUX          Analytical bottom passive tracers fluxes.
 ANA_BSFLUX          Analytical kinematic bottom salinity flux.
 ANA_BTFLUX          Analytical kinematic bottom temperature flux.
 ANA_FSOBC           Analytical free-surface boundary conditions.
 ANA_M2OBC           Analytical 2D momentum boundary conditions.
 ANA_SMFLUX          Analytical kinematic surface momentum flux.
 ANA_SPFLUX          Analytical surface passive tracer fluxes.
 ANA_SSFLUX          Analytical kinematic surface salinity flux.
 ANA_STFLUX          Analytical kinematic surface temperature flux.
 ASSUMED_SHAPE       Using assumed-shape arrays.
 BEDLOAD_MPM         Activate bed load sediment transport Meyer-Peter-Mueller.
 DJ_GRADPS           Parabolic Splines density Jacobian (Shchepetkin, 2002).
 DOUBLE_PRECISION    Double precision arithmetic.
 FSOBC_REDUCED       Using free-surface data in reduced physics condtions
 GLS_MIXING          Generic Length-Scale turbulence closure.
 KANTHA_CLAYSON      Kantha and Clayson stability function formulation.
 MASKING             Land/Sea masking.
 MCT_LIB             Using Model Coupling Toolkit library.
 MPI                 MPI distributed-memory configuration.
 NEARSHORE_MELLOR05  Nearshore Radiation Stress Terms (Mellor 2005).
 NONLINEAR           Nonlinear Model.
 !NONLIN_EOS         Linear Equation of State for seawater.
 N2S2_HORAVG         Horizontal smoothing of buoyancy and shear.
 POWER_LAW           Power-law shape time-averaging barotropic filter.
 PROFILE             Time profiling activated .
 K_GSCHEME           Third-order upstream advection of TKE fields.
 !RST_SINGLE         Double precision fields in restart NetCDF file.
 SEDIMENT            Cohesive and noncohesive sediments.
 SED_MORPH           Allow bottom model elevation to evolve.
 SUSPLOAD            Activate suspended sediment transport.
 SOLVE3D             Solving 3D Primitive Equations.
 SPLINES             Conservative parabolic spline reconstruction.
 SSH_TIDES           Add tidal elevation to SSH climatology.
 STATIONS            Writing out station data.
 SWAN_COUPLING       Two-way SWAN/ROMS coupling.
 TS_MPDATA           Recursive flux corrected MPDATA 3D advection of tracers.
 UV_ADV              Advection of momentum.
 UV_U3HADVECTION     Third-order upstream horizontal advection of 3D momentum.
 UV_C4VADVECTION     Fourth-order centered vertical advection of momentum.
 UV_LOGDRAG          Logarithmic bottom stress.
 UV_TIDES            Add tidal currents to 2D momentum climatologies.
 VAR_RHO_2D          Variable density barotropic mode.
 WAVES_OCEAN         Two-way wave-ocean models coupling.
 WET_DRY             Wetting and drying activated.

 Process Information:

 Node #  0 (pid=    5588) is active.

 INITIAL: Configuring and initializing forward nonlinear model ...


 Vertical S-coordinate System: 

 level   S-coord     Cs-curve   Z   at hmin       at hc    half way     at hmax

    10   0.0000000   0.0000000        0.000       0.000       0.000       0.000
     9  -0.1000000  -0.0998711       -0.184      -0.010      -1.091      -1.997
     8  -0.2000000  -0.1998081       -0.368      -0.020      -2.182      -3.996
     7  -0.3000000  -0.2997971       -0.552      -0.030      -3.274      -5.996
     6  -0.4000000  -0.3998241       -0.736      -0.040      -4.366      -7.997
     5  -0.5000000  -0.4998751       -0.920      -0.050      -5.459      -9.998
     4  -0.6000000  -0.5999361       -1.104      -0.060      -6.551     -11.999
     3  -0.7000000  -0.6999931       -1.288      -0.070      -7.644     -14.000
     2  -0.8000000  -0.8000320       -1.472      -0.080      -8.736     -16.001
     1  -0.9000000  -0.9000390       -1.656      -0.090      -9.828     -18.001
     0  -1.0000000  -1.0000000       -1.840      -0.100     -10.920     -20.000

 Time Splitting Weights: ndtfast =  20    nfast =  29

    Primary            Secondary            Accumulated to Current Step

  1-0.0009651193358779 0.0500000000000000-0.0009651193358779 0.0500000000000000
  2-0.0013488780126037 0.0500482559667939-0.0023139973484816 0.1000482559667939
  3-0.0011514592651645 0.0501156998674241-0.0034654566136461 0.1501639558342180
  4-0.0003735756740661 0.0501732728306823-0.0038390322877122 0.2003372286649003
  5 0.0009829200513762 0.0501919516143856-0.0028561122363360 0.2505291802792859
  6 0.0029141799764308 0.0501428056118168 0.0000580677400948 0.3006719858911027
  7 0.0054132615310267 0.0499970966129953 0.0054713292711214 0.3506690825040980
  8 0.0084687837865132 0.0497264335364439 0.0139401130576347 0.4003955160405419
  9 0.0120633394191050 0.0493029943471183 0.0260034524767396 0.4496985103876602
 10 0.0161716623600090 0.0486998273761630 0.0421751148367486 0.4983983377638232
 11 0.0207585511322367 0.0478912442581626 0.0629336659689853 0.5462895820219857
 12 0.0257765478740990 0.0468533167015507 0.0887102138430844 0.5931428987235364
 13 0.0311633730493853 0.0455644893078458 0.1198735868924697 0.6387073880313822
 14 0.0368391158442262 0.0440063206553765 0.1567127027366959 0.6827137086867586
 15 0.0427031802506397 0.0421643648631652 0.1994158829873356 0.7248780735499238
 16 0.0486309868367616 0.0400292058506332 0.2480468698240972 0.7649072794005570
 17 0.0544704302037592 0.0375976565087951 0.3025173000278564 0.8025049359093521
 18 0.0600380921294286 0.0348741349986072 0.3625553921572851 0.8373790709079593
 19 0.0651152103984763 0.0318722303921357 0.4276706025557614 0.8692513013000950
 20 0.0694434033194840 0.0286164698722119 0.4971140058752453 0.8978677711723069
 21 0.0727201499285570 0.0251442997062377 0.5698341558038024 0.9230120708785446
 22 0.0745940258796570 0.0215082922098099 0.6444281816834594 0.9445203630883545
 23 0.0746596950216180 0.0177785909158270 0.7190878767050775 0.9622989540041815
 24 0.0724526566618460 0.0140456061647461 0.7915405333669234 0.9763445601689277
 25 0.0674437485167026 0.0104229733316538 0.8589842818836260 0.9867675335005816
 26 0.0590334053485720 0.0070507859058187 0.9180176872321980 0.9938183194064002
 27 0.0465456732896125 0.0040991156383901 0.9645633605218105 0.9979174350447902
 28 0.0292219798521904 0.0017718319739095 0.9937853403740009 0.9996892670186998
 29 0.0062146596259990 0.0003107329812999 0.9999999999999999 0.9999999999999997

 ndtfast, nfast =   20  29   nfast/ndtfast =  1.45000

 Centers of gravity and integrals (values must be 1, 1, approx 1/2, 1, 1):

    1.000000000000 1.060707743385 0.530353871693 1.000000000000 1.000000000000

 Power filter parameters, Fgamma, gamma =  0.28400   0.14200

 Minimum X-grid spacing, DXmin =  1.13252747E-01 km
 Maximum X-grid spacing, DXmax =  2.08188350E+00 km
 Minimum Y-grid spacing, DYmin =  1.00252718E-01 km
 Maximum Y-grid spacing, DYmax =  1.64514065E+00 km
 Minimum Z-grid spacing, DZmin =  1.83775741E-01 m
 Maximum Z-grid spacing, DZmax =  2.00121356E+00 m

 Minimum barotropic Courant Number =  1.29376506E-02
 Maximum barotropic Courant Number =  1.03864092E-01
 Maximum Coriolis   Courant Number =  1.66318560E-05


 NLM: GET_STATE - Read state initial conditions,             t =     0 00:00:00
                   (File: test_head_ini.nc, Rec=0001, Index=1)
                - free-surface
                   (Min =  0.00000000E+00 Max =  0.00000000E+00)
                - vertically integrated u-momentum component
                   (Min =  0.00000000E+00 Max =  0.00000000E+00)
                - vertically integrated v-momentum component
                   (Min =  0.00000000E+00 Max =  0.00000000E+00)
                - u-momentum component
                   (Min =  0.00000000E+00 Max =  0.00000000E+00)
                - v-momentum component
                   (Min =  0.00000000E+00 Max =  0.00000000E+00)
                - potential temperature
                   (Min =  1.00000000E+01 Max =  1.00000000E+01)
                - suspended noncohesive sediment, size class 01
                   (Min =  0.00000000E+00 Max =  0.00000000E+00)
                - noncohesive sediment fraction, size class 01
                   (Min =  1.00000000E+00 Max =  1.00000000E+00)
                - noncohesive sediment mass, size class 01
                   (Min =  7.95000000E+02 Max =  7.95000000E+02)
                - sediment bed layer thickness
                   (Min =  3.00000000E+00 Max =  3.00000000E+00)
                - sediment layer age
                   (Min =  0.00000000E+00 Max =  0.00000000E+00)
                - sediment layer porosity
                   (Min =  9.00000000E-01 Max =  9.00000000E-01)
                - biodiffusivity at bottom of each layer
                   (Min =  0.00000000E+00 Max =  0.00000000E+00)
                - sediment median grain diameter size
                   (Min =  3.01900000E-05 Max =  3.01900000E-05)
                - sediment median grain density
                   (Min =  2.65000000E+03 Max =  2.65000000E+03)
                - sediment median grain settling velocity
                   (Min =  5.48500000E-04 Max =  5.48500000E-04)
                - sediment median critical erosion stress
                   (Min =  5.87111845E-05 Max =  5.87111845E-05)
    GET_NGFLD   - tidal period
                   (Min =  4.32000000E+04 Max =  4.32000000E+04)
    GET_2DFLD   - tidal elevation amplitude
                   (Min =  2.50000000E-01 Max =  7.13896844E-01)
    GET_2DFLD   - tidal elevation phase angle
                   (Min =  4.83153953E-02 Max =  4.71238898E+00)
    GET_2DFLD   - tidal current inclination angle
                   (Min =  0.00000000E+00 Max =  0.00000000E+00)
    GET_2DFLD   - tidal current phase angle
                   (Min =  0.00000000E+00 Max =  5.01397018E-01)
    GET_2DFLD   - maximum tidal current, ellipse major axis
                   (Min =  4.24443233E-01 Max =  5.00000000E-01)
    GET_2DFLD   - minimum tidal current, ellipse minor axis
                   (Min =  0.00000000E+00 Max =  0.00000000E+00)

 Maximum grid stiffness ratios:  rx0 =   2.357374E-01 (Beckmann and Haidvogel)
                                 rx1 =   4.480829E+00 (Haney)


 Initial basin volumes: TotVolume =  1.9528627308E+10 m3
                        MinVolume =  2.5704990210E+03 m3
                        MaxVolume =  5.2472233629E+06 m3
                          Max/Min =  2.0413247856E+03

      OCN2WAV   - (06) imported and (05) exported fields,    t =     0 00:00:00
                - ROMS coupling exchanges wait clock (s):
                   (Recv= 0.00000000E+00 Send= 4.00000000E-03)
                - ROMS Import: wave direction
                   (Min=  0.00000000E+00 Max=  0.00000000E+00)
                - ROMS Import: significant wave height
                   (Min=  0.00000000E+00 Max=  2.00944766E-02)
                - ROMS Import: average wave length
                   (Min=  0.00000000E+00 Max=  3.13734722E+00)
                - ROMS Import: surface wave relative peak period
                   (Min=  0.00000000E+00 Max=  1.90365243E+00)
                - ROMS Import: bottom wave period
                   (Min=  0.00000000E+00 Max=  0.00000000E+00)
                - ROMS Import: wave bottom orbital velocity
                   (Min=  0.00000000E+00 Max=  0.00000000E+00)
                - ROMS Export: bathymetry
                   (Min=  1.84000000E+00 Max=  2.00000000E+01)
                - ROMS Export: free-surface
                   (Min=  0.00000000E+00 Max=  0.00000000E+00)
                - ROMS Export: vertically integrated u-momentum component
                   (Min=  0.00000000E+00 Max=  0.00000000E+00)
                - ROMS Export: vertically integrated v-momentum component
                   (Min=  0.00000000E+00 Max=  0.00000000E+00)
                - ROMS Export: bottom roughness
                   (Min=  3.00000000E-03 Max=  3.00000000E-03)



 NL ROMS/TOMS: started time-stepping: (Grid: 01 TimeSteps: 00000001 - 00001440)


     STEP   Day HH:MM:SS  KINETIC_ENRG  POTEN_ENRG   TOTAL_ENRG   NET_VOLUME
            C => (i,j,k)       Cu           Cv           Cw        Max Speed

        0     0 00:00:00  0.000000E+00 9.619779E+01 9.619779E+01 1.952863E+10
              (00,00,00)  0.000000E+00 0.000000E+00 0.000000E+00 0.000000E+00



 SWAN is preparing computation ...

      WAV2OCN   - (05) imported and (06) exported fields,    t = 20030101.000000
                - SWAN coupling exchanges wait clock (s):
                   (Recv= 0.00000000E+00 Send= 0.00000000E+00)
      DEF_HIS   - creating history file: ocean_his.nc
      WRT_HIS   - wrote history  fields (Index=1,1) into time record = 0000001
      DEF_STATION - creating stations file: ocean_sta.nc
        1     0 00:00:30  1.091903E-13 9.619779E+01 9.619779E+01 1.952863E+10
              (32,01,10)  3.036488E-06 2.105961E-06 0.000000E+00 2.148498E-05
        2     0 00:01:00  1.070932E-09 9.619779E+01 9.619779E+01 1.952863E+10
              (27,02,10)  2.381736E-06 1.927808E-05 2.637071E-06 8.771873E-05
        3     0 00:01:30  2.549942E-09 9.619779E+01 9.619779E+01 1.952863E+10
              (28,01,09)  7.940331E-07 1.068325E-05 4.254352E-04 2.237127E-04
        4     0 00:02:00  7.848889E-09 9.619779E+01 9.619779E+01 1.952863E+10
              (28,01,09)  1.434260E-06 1.613408E-05 3.578790E-04 4.523121E-04
        5     0 00:02:30  1.879409E-08 9.619779E+01 9.619779E+01 1.952863E+10
              (28,01,09)  1.244896E-06 1.889861E-05 2.626936E-04 7.184919E-04
        6     0 00:03:00  3.949924E-08 9.619779E+01 9.619779E+01 1.952863E+10
              (28,01,09)  1.023435E-06 1.889952E-05 3.065395E-04 1.045771E-03
        7     0 00:03:30  7.443914E-08 9.619779E+01 9.619779E+01 1.952863E+10
              (56,01,10)  1.719829E-05 9.256605E-06 3.330706E-04 1.430365E-03
        8     0 00:04:00  1.291804E-07 9.619779E+01 9.619779E+01 1.952863E+10
              (56,01,10)  2.315669E-05 1.269519E-05 4.724388E-04 1.866292E-03
      WAV2OCN   - (05) imported and (06) exported fields,    t = 20030101.000400
                - SWAN coupling exchanges wait clock (s):
                   (Recv= 0.00000000E+00 Send= 0.00000000E+00)
      OCN2WAV   - (06) imported and (05) exported fields,    t =     0 00:04:00
                - ROMS coupling exchanges wait clock (s):
                   (Recv= 0.00000000E+00 Send= 0.00000000E+00)
                - ROMS Import: wave direction
                   (Min=  0.00000000E+00 Max=  6.28318424E+00)
                - ROMS Import: significant wave height
                   (Min=  3.39929038E-03 Max=  1.99690139E+00)
                - ROMS Import: average wave length
                   (Min=  3.14446378E+00 Max=  1.16098572E+02)
                - ROMS Import: surface wave relative peak period
                   (Min=  1.90365243E+00 Max=  1.05963402E+01)
                - ROMS Import: bottom wave period
                   (Min=  5.65095520E+00 Max=  1.15603771E+01)
                - ROMS Import: wave bottom orbital velocity
                   (Min=  2.47446995E-04 Max=  3.21602821E-01)
                - ROMS Export: bathymetry
                   (Min=  1.84000000E+00 Max=  2.00000000E+01)
                - ROMS Export: free-surface
                   (Min= -7.63462830E-03 Max=  7.63462830E-03)
                - ROMS Export: vertically integrated u-momentum component
                   (Min= -4.20032756E-04 Max=  1.63078656E-03)
                - ROMS Export: vertically integrated v-momentum component
                   (Min= -2.04061012E-04 Max=  4.17480050E-04)
                - ROMS Export: bottom roughness
                   (Min=  3.00000000E-03 Max=  3.00000000E-03)
        9     0 00:04:30  2.175917E-06 9.619779E+01 9.619779E+01 1.952863E+10
              (56,01,10)  2.996072E-05 1.639831E-05 6.431247E-04 1.220770E-02
       10     0 00:05:00  1.106432E-06 9.619779E+01 9.619779E+01 1.952863E+10
              (01,26,10)  5.357680E-05 5.197137E-05 9.931037E-04 5.207972E-03
       11     0 00:05:30  1.280385E-06 9.619778E+01 9.619778E+01 1.952863E+10
              (01,26,10)  6.645754E-05 6.594808E-05 1.068989E-03 6.515629E-03
       12     0 00:06:00  1.374417E-06 9.619778E+01 9.619778E+01 1.952862E+10
              (56,01,10)  5.705109E-05 3.338819E-05 1.271930E-03 6.415590E-03
       13     0 00:06:30  1.567166E-06 9.619778E+01 9.619778E+01 1.952862E+10
              (56,01,10)  6.811030E-05 3.870786E-05 1.481851E-03 6.676067E-03
       14     0 00:07:00  1.866435E-06 9.619778E+01 9.619778E+01 1.952862E+10
              (56,01,10)  8.011032E-05 4.330612E-05 1.669899E-03 7.086590E-03
       15     0 00:07:30  2.279940E-06 9.619778E+01 9.619778E+01 1.952862E+10
              (56,01,10)  9.294625E-05 4.696819E-05 1.826272E-03 7.629760E-03
       16     0 00:08:00  2.815392E-06 9.619778E+01 9.619778E+01 1.952862E+10
              (56,01,10)  1.064808E-04 4.960433E-05 1.945212E-03 8.284122E-03
      WAV2OCN   - (05) imported and (06) exported fields,    t = 20030101.000800
                - SWAN coupling exchanges wait clock (s):
                   (Recv= 0.00000000E+00 Send= 4.00000000E-03)
      OCN2WAV   - (06) imported and (05) exported fields,    t =     0 00:08:00
                - ROMS coupling exchanges wait clock (s):
                   (Recv= 0.00000000E+00 Send= 0.00000000E+00)
                - ROMS Import: wave direction
                   (Min=  0.00000000E+00 Max=  6.28315974E+00)
                - ROMS Import: significant wave height
                   (Min=  1.11453459E-02 Max=  1.99690139E+00)
                - ROMS Import: average wave length
                   (Min=  4.18719673E+00 Max=  1.17935684E+02)
                - ROMS Import: surface wave relative peak period
                   (Min=  9.51826668E+00 Max=  1.05963402E+01)
                - ROMS Import: bottom wave period
                   (Min=  1.00508442E+01 Max=  1.14245720E+01)
                - ROMS Import: wave bottom orbital velocity
                   (Min=  1.95898279E-03 Max=  3.21678728E-01)
                - ROMS Export: bathymetry
                   (Min=  1.84000000E+00 Max=  2.00000000E+01)
                - ROMS Export: free-surface
                   (Min= -1.63507823E-02 Max=  1.63507823E-02)
                - ROMS Export: vertically integrated u-momentum component
                   (Min= -4.54506751E-03 Max=  7.54036990E-03)
                - ROMS Export: vertically integrated v-momentum component
                   (Min= -1.54251756E-03 Max=  7.12764864E-03)
                - ROMS Export: bottom roughness
                   (Min=  3.00000000E-03 Max=  3.00000000E-03)
       17     0 00:08:30  6.169946E-06 9.619777E+01 9.619777E+01 1.952862E+10
              (56,01,10)  1.204843E-04 4.830625E-05 2.025252E-03 1.368823E-02
       18     0 00:09:00  5.957007E-06 9.619776E+01 9.619777E+01 1.952862E+10
              (28,01,10)  3.800866E-06 1.446979E-04 4.863050E-03 1.125689E-02
       19     0 00:09:30  7.118984E-06 9.619776E+01 9.619776E+01 1.952862E+10
              (28,01,10)  5.131548E-06 1.036451E-04 4.033324E-03 1.252442E-02
       20     0 00:10:00  8.229164E-06 9.619775E+01 9.619776E+01 1.952862E+10
              (28,01,10)  2.366805E-06 1.159448E-04 3.098488E-03 1.324014E-02
       21     0 00:10:30  9.475234E-06 9.619775E+01 9.619776E+01 1.952862E+10
              (28,01,10)  9.761629E-07 1.101873E-04 3.429498E-03 1.397765E-02
       22     0 00:11:00  1.086049E-05 9.619774E+01 9.619775E+01 1.952861E+10
              (28,01,10)  3.135041E-07 1.040679E-04 3.277069E-03 1.473695E-02
       23     0 00:11:30  1.239662E-05 9.619774E+01 9.619775E+01 1.952861E+10
              (28,01,10)  1.748004E-06 9.937373E-05 3.127556E-03 1.552181E-02
       24     0 00:12:00  1.410115E-05 9.619774E+01 9.619775E+01 1.952861E+10
              (28,01,10)  2.104592E-06 9.511998E-05 3.058281E-03 1.633694E-02
      WAV2OCN   - (05) imported and (06) exported fields,    t = 20030101.001200
                - SWAN coupling exchanges wait clock (s):
                   (Recv= 0.00000000E+00 Send= 4.00000000E-03)
      OCN2WAV   - (06) imported and (05) exported fields,    t =     0 00:12:00
                - ROMS coupling exchanges wait clock (s):
                   (Recv= 0.00000000E+00 Send= 0.00000000E+00)
                - ROMS Import: wave direction
                   (Min=  0.00000000E+00 Max=  6.28318424E+00)
                - ROMS Import: significant wave height
                   (Min=  3.21386233E-02 Max=  1.99690139E+00)
                - ROMS Import: average wave length
                   (Min=  1.34359493E+01 Max=  1.19149384E+02)
                - ROMS Import: surface wave relative peak period
                   (Min=  9.51826668E+00 Max=  1.05963402E+01)
                - ROMS Import: bottom wave period
                   (Min=  1.00505724E+01 Max=  1.12919044E+01)
                - ROMS Import: wave bottom orbital velocity
                   (Min=  6.79687178E-03 Max=  3.21820557E-01)
                - ROMS Export: bathymetry
                   (Min=  1.84000000E+00 Max=  2.00000000E+01)
                - ROMS Export: free-surface
                   (Min= -2.50470154E-02 Max=  2.50470154E-02)
                - ROMS Export: vertically integrated u-momentum component
                   (Min= -1.16831090E-02 Max=  1.55882773E-02)
                - ROMS Export: vertically integrated v-momentum component
                   (Min= -2.19223656E-03 Max=  9.27203548E-03)
                - ROMS Export: bottom roughness
                   (Min=  3.00000000E-03 Max=  3.00000000E-03)
       25     0 00:12:30  1.894257E-05 9.619773E+01 9.619774E+01 1.952861E+10
              (28,01,10)  2.554253E-05 1.376163E-03 3.002362E-03 1.867088E-02
       26     0 00:13:00  2.030821E-05 9.619772E+01 9.619774E+01 1.952861E+10
              (28,01,10)  5.396006E-06 1.059018E-03 3.013381E-02 1.869681E-02
       27     0 00:13:30  2.290452E-05 9.619770E+01 9.619773E+01 1.952861E+10
              (28,01,10)  8.056854E-06 8.462997E-04 2.507436E-02 1.979017E-02
       28     0 00:14:00  2.555724E-05 9.619769E+01 9.619772E+01 1.952860E+10
              (28,01,10)  3.040871E-05 9.191671E-04 1.911786E-02 2.067816E-02
       29     0 00:14:30  2.843638E-05 9.619768E+01 9.619771E+01 1.952860E+10
              (28,01,10)  4.620670E-05 8.920140E-04 2.071142E-02 2.157931E-02
       30     0 00:15:00  3.155050E-05 9.619767E+01 9.619771E+01 1.952860E+10
              (28,01,10)  5.284483E-05 8.863823E-04 1.977996E-02 2.249132E-02
       31     0 00:15:30  3.491004E-05 9.619766E+01 9.619770E+01 1.952860E+10
              (28,01,10)  5.991476E-05 8.889510E-04 1.958157E-02 2.341277E-02
       32     0 00:16:00  3.852722E-05 9.619765E+01 9.619769E+01 1.952860E+10
              (28,01,10)  6.812022E-05 8.695317E-04 1.971773E-02 2.434308E-02
      WAV2OCN   - (05) imported and (06) exported fields,    t = 20030101.001600
                - SWAN coupling exchanges wait clock (s):
                   (Recv= 0.00000000E+00 Send= 4.00100000E-03)
      OCN2WAV   - (06) imported and (05) exported fields,    t =     0 00:16:00
                - ROMS coupling exchanges wait clock (s):
                   (Recv= 0.00000000E+00 Send= 0.00000000E+00)
                - ROMS Import: wave direction
                   (Min=  0.00000000E+00 Max=  6.28318158E+00)
                - ROMS Import: significant wave height
                   (Min=  7.49077424E-02 Max=  1.99690139E+00)
                - ROMS Import: average wave length
                   (Min=  3.66481400E+01 Max=  1.20125633E+02)
                - ROMS Import: surface wave relative peak period
                   (Min=  9.51826668E+00 Max=  1.05963402E+01)
                - ROMS Import: bottom wave period
                   (Min=  1.00503216E+01 Max=  1.11682510E+01)
                - ROMS Import: wave bottom orbital velocity
                   (Min=  1.62977502E-02 Max=  4.36626434E-01)
                - ROMS Export: bathymetry
                   (Min=  1.84000000E+00 Max=  2.00000000E+01)
                - ROMS Export: free-surface
                   (Min= -3.37127326E-02 Max=  3.37127326E-02)
                - ROMS Export: vertically integrated u-momentum component
                   (Min= -1.94873854E-02 Max=  2.38706741E-02)
                - ROMS Export: vertically integrated v-momentum component
                   (Min= -2.73178668E-03 Max=  1.01249371E-02)
                - ROMS Export: bottom roughness
                   (Min=  3.00000000E-03 Max=  3.00000000E-03)
       33     0 00:16:30  4.524096E-05 9.619762E+01 9.619766E+01 1.952860E+10
              (28,01,10)  1.757070E-04 4.980922E-03 1.916172E-02 2.687551E-02
       34     0 00:17:00  4.888004E-05 9.619759E+01 9.619764E+01 1.952859E+10
              (28,01,10)  1.373945E-04 3.985264E-03 1.056442E-01 2.649925E-02
       35     0 00:17:30  5.362760E-05 9.619757E+01 9.619762E+01 1.952859E+10
              (28,01,10)  1.743477E-04 3.324006E-03 8.975322E-02 2.754155E-02
       36     0 00:18:00  5.854286E-05 9.619754E+01 9.619759E+01 1.952859E+10
              (28,01,10)  2.720825E-04 3.565578E-03 7.058874E-02 2.849544E-02
       37     0 00:18:30  6.376578E-05 9.619750E+01 9.619757E+01 1.952859E+10
              (28,01,10)  3.549432E-04 3.497563E-03 7.515984E-02 2.945021E-02
       38     0 00:19:00  6.930700E-05 9.619747E+01 9.619753E+01 1.952859E+10
              (28,01,10)  4.029925E-04 3.506082E-03 7.212224E-02 3.040606E-02
       39     0 00:19:30  7.517840E-05 9.619742E+01 9.619750E+01 1.952858E+10
              (28,01,10)  4.479980E-04 3.545084E-03 7.151231E-02 3.136333E-02
       40     0 00:20:00  8.139245E-05 9.619738E+01 9.619746E+01 1.952858E+10
              (28,01,10)  4.954177E-04 3.534017E-03 7.203293E-02 3.232244E-02
      WAV2OCN   - (05) imported and (06) exported fields,    t = 20030101.002000
                - SWAN coupling exchanges wait clock (s):
                   (Recv= 0.00000000E+00 Send= 0.00000000E+00)
      OCN2WAV   - (06) imported and (05) exported fields,    t =     0 00:20:00
                - ROMS coupling exchanges wait clock (s):
                   (Recv= 0.00000000E+00 Send= 4.00100000E-03)
                - ROMS Import: wave direction
                   (Min=  0.00000000E+00 Max=  6.28318477E+00)
                - ROMS Import: significant wave height
                   (Min=  1.45324215E-01 Max=  1.99690139E+00)
                - ROMS Import: average wave length
                   (Min=  4.30121613E+01 Max=  1.20920021E+02)
                - ROMS Import: surface wave relative peak period
                   (Min=  9.51826668E+00 Max=  1.05963402E+01)
                - ROMS Import: bottom wave period
                   (Min=  1.00500736E+01 Max=  1.10542393E+01)
                - ROMS Import: wave bottom orbital velocity
                   (Min=  3.10620610E-02 Max=  6.70551181E-01)
                - ROMS Export: bathymetry
                   (Min=  1.84000000E+00 Max=  2.00000000E+01)
                - ROMS Export: free-surface
                   (Min= -4.23373760E-02 Max=  4.23373760E-02)
                - ROMS Export: vertically integrated u-momentum component
                   (Min= -2.73860541E-02 Max=  3.20483106E-02)
                - ROMS Export: vertically integrated v-momentum component
                   (Min= -4.47529912E-03 Max=  1.91608840E-02)
                - ROMS Export: bottom roughness
                   (Min=  3.00000000E-03 Max=  3.00000000E-03)
       41     0 00:20:30  9.060711E-05 9.619730E+01 9.619739E+01 1.952858E+10
              (28,01,10)  1.184641E-03 9.773832E-03 7.078403E-02 5.571689E-02
       42     0 00:21:00  9.714777E-05 9.619723E+01 9.619733E+01 1.952858E+10
              (28,01,10)  1.203607E-03 9.072169E-03 2.047313E-01 5.807656E-02
       43     0 00:21:30  1.047184E-04 9.619716E+01 9.619727E+01 1.952858E+10
              (28,01,10)  1.306134E-03 7.721927E-03 2.088848E-01 5.159345E-02
       44     0 00:22:00  1.125685E-04 9.619709E+01 9.619720E+01 1.952857E+10
              (28,01,10)  1.558291E-03 7.628178E-03 1.762537E-01 4.997964E-02
       45     0 00:22:30  1.208124E-04 9.619702E+01 9.619714E+01 1.952857E+10
              (28,01,10)  1.837659E-03 7.521765E-03 1.758240E-01 5.146357E-02
       46     0 00:23:00  1.294589E-04 9.619694E+01 9.619707E+01 1.952857E+10
              (28,01,10)  2.069665E-03 7.366133E-03 1.750150E-01 5.255978E-02
       47     0 00:23:30  1.385178E-04 9.619685E+01 9.619699E+01 1.952857E+10
              (28,01,10)  2.279455E-03 7.357764E-03 1.737058E-01 5.377590E-02
       48     0 00:24:00  1.479983E-04 9.619676E+01 9.619691E+01 1.952857E+10
              (28,01,10)  2.499993E-03 7.260255E-03 1.768804E-01 5.502872E-02
      WAV2OCN   - (05) imported and (06) exported fields,    t = 20030101.002400
                - SWAN coupling exchanges wait clock (s):
                   (Recv= 0.00000000E+00 Send= 0.00000000E+00)
      OCN2WAV   - (06) imported and (05) exported fields,    t =     0 00:24:00
                - ROMS coupling exchanges wait clock (s):
                   (Recv= 0.00000000E+00 Send= 0.00000000E+00)
                - ROMS Import: wave direction
                   (Min=  0.00000000E+00 Max=  6.28318477E+00)
                - ROMS Import: significant wave height
                   (Min=  2.40459621E-01 Max=  1.99690139E+00)
                - ROMS Import: average wave length
                   (Min=  4.28234825E+01 Max=  1.21612587E+02)
                - ROMS Import: surface wave relative peak period
                   (Min=  9.51826668E+00 Max=  1.05963402E+01)
                - ROMS Import: bottom wave period
                   (Min=  1.00495663E+01 Max=  1.09443321E+01)
                - ROMS Import: wave bottom orbital velocity
                   (Min=  5.00788689E-02 Max=  7.93915272E-01)
                - ROMS Export: bathymetry
                   (Min=  1.84000000E+00 Max=  2.00000000E+01)
                - ROMS Export: free-surface
                   (Min= -5.09104378E-02 Max=  5.09104378E-02)
                - ROMS Export: vertically integrated u-momentum component
                   (Min= -3.52316463E-02 Max=  4.00479963E-02)
                - ROMS Export: vertically integrated v-momentum component
                   (Min= -6.42219738E-03 Max=  4.56501561E-02)
                - ROMS Export: bottom roughness
                   (Min=  3.00000000E-03 Max=  3.00000000E-03)
       49     0 00:24:30  1.604736E-04 9.619662E+01 9.619678E+01 1.952857E+10
              (28,01,10)  2.923980E-03 9.042946E-03 1.759288E-01 7.072355E-02
       50     0 00:25:00  1.705427E-04 9.619650E+01 9.619667E+01 1.952857E+10
              (27,01,10)  2.558367E-03 9.916549E-03 2.225465E-01 8.263995E-02
       51     0 00:25:30  1.815823E-04 9.619638E+01 9.619656E+01 1.952857E+10
              (28,01,10)  2.248919E-03 1.103517E-02 2.827902E-01 8.753348E-02
       52     0 00:26:00  1.929784E-04 9.619625E+01 9.619644E+01 1.952857E+10
              (28,01,10)  2.294653E-03 9.233387E-03 3.071188E-01 8.137025E-02
       53     0 00:26:30  2.048279E-04 9.619611E+01 9.619631E+01 1.952857E+10
              (28,01,10)  2.421685E-03 8.669233E-03 2.715189E-01 7.712100E-02
       54     0 00:27:00  2.171411E-04 9.619595E+01 9.619617E+01 1.952857E+10
              (28,01,10)  2.468712E-03 8.282633E-03 2.649071E-01 7.774290E-02
       55     0 00:27:30  2.299282E-04 9.619579E+01 9.619602E+01 1.952857E+10
              (28,01,10)  2.547601E-03 7.739946E-03 2.650462E-01 7.860180E-02
       56     0 00:28:00  2.432000E-04 9.619562E+01 9.619586E+01 1.952857E+10
              (28,01,10)  2.617529E-03 7.312318E-03 2.610214E-01 7.964201E-02
      WAV2OCN   - (05) imported and (06) exported fields,    t = 20030101.002800
                - SWAN coupling exchanges wait clock (s):
                   (Recv= 0.00000000E+00 Send= 4.00100000E-03)
      OCN2WAV   - (06) imported and (05) exported fields,    t =     0 00:28:00
                - ROMS coupling exchanges wait clock (s):
                   (Recv= 0.00000000E+00 Send= 0.00000000E+00)
                - ROMS Import: wave direction
                   (Min=  0.00000000E+00 Max=  6.28318477E+00)
                - ROMS Import: significant wave height
                   (Min=  3.56289178E-01 Max=  1.99690139E+00)
                - ROMS Import: average wave length
                   (Min=  4.25791893E+01 Max=  1.21312546E+02)
                - ROMS Import: surface wave relative peak period
                   (Min=  9.51826668E+00 Max=  1.05963402E+01)
                - ROMS Import: bottom wave period
                   (Min=  1.00450764E+01 Max=  1.08381414E+01)
                - ROMS Import: wave bottom orbital velocity
                   (Min=  7.16371834E-02 Max=  8.89794707E-01)
                - ROMS Export: bathymetry
                   (Min=  1.84000000E+00 Max=  2.00000000E+01)
                - ROMS Export: free-surface
                   (Min= -5.94214731E-02 Max=  5.94214731E-02)
                - ROMS Export: vertically integrated u-momentum component
                   (Min= -4.29766617E-02 Max=  4.78877628E-02)
                - ROMS Export: vertically integrated v-momentum component
                   (Min= -7.54497576E-03 Max=  5.19251288E-02)
                - ROMS Export: bottom roughness
                   (Min=  3.00000000E-03 Max=  3.00000000E-03)
       57     0 00:28:30  2.595853E-04 9.619539E+01 9.619565E+01 1.952857E+10
              (29,01,10)  4.665541E-03 7.700395E-03 2.556638E-01 8.802647E-02
       58     0 00:29:00  2.736653E-04 9.619522E+01 9.619549E+01 1.952857E+10
              (30,01,10)  7.991153E-03 6.149998E-03 2.444045E-01 9.490435E-02
       59     0 00:29:30  2.886956E-04 9.619506E+01 9.619535E+01 1.952857E+10
              (30,01,10)  1.135733E-02 7.323531E-03 2.860502E-01 9.899288E-02
       60     0 00:30:00  3.041888E-04 9.619492E+01 9.619522E+01 1.952858E+10
              (29,01,10)  8.143373E-03 9.505736E-03 3.547065E-01 1.024490E-01
       61     0 00:30:30  3.202262E-04 9.619480E+01 9.619512E+01 1.952858E+10
              (28,01,10)  2.100171E-03 5.110622E-03 3.482500E-01 1.084290E-01
       62     0 00:31:00  3.368379E-04 9.619472E+01 9.619506E+01 1.952858E+10
              (30,01,10)  1.642708E-02 3.734140E-03 3.065774E-01 1.156972E-01
       63     0 00:31:30  3.540524E-04 9.619469E+01 9.619505E+01 1.952859E+10
              (30,01,10)  1.827735E-02 3.074268E-03 3.046367E-01 1.249676E-01
       64     0 00:32:00  3.718943E-04 9.619471E+01 9.619509E+01 1.952859E+10
              (30,01,10)  2.024206E-02 2.393729E-03 3.056159E-01 1.351815E-01
      WAV2OCN   - (05) imported and (06) exported fields,    t = 20030101.003200
                - SWAN coupling exchanges wait clock (s):
                   (Recv= 0.00000000E+00 Send= 4.00000000E-03)
      OCN2WAV   - (06) imported and (05) exported fields,    t =     0 00:32:00
                - ROMS coupling exchanges wait clock (s):
                   (Recv= 0.00000000E+00 Send= 0.00000000E+00)
                - ROMS Import: wave direction
                   (Min=  0.00000000E+00 Max=  6.28317572E+00)
                - ROMS Import: significant wave height
                   (Min=  4.84444886E-01 Max=  1.99690139E+00)
                - ROMS Import: average wave length
                   (Min=  4.21846962E+01 Max=  1.20271431E+02)
                - ROMS Import: surface wave relative peak period
                   (Min=  9.51826668E+00 Max=  1.05963402E+01)
                - ROMS Import: bottom wave period
                   (Min=  1.00421734E+01 Max=  1.07378855E+01)
                - ROMS Import: wave bottom orbital velocity
                   (Min=  9.41026658E-02 Max=  9.47477221E-01)
                - ROMS Export: bathymetry
                   (Min=  1.84000000E+00 Max=  2.00000000E+01)
                - ROMS Export: free-surface
                   (Min= -6.78601125E-02 Max=  6.78601125E-02)
                - ROMS Export: vertically integrated u-momentum component
                   (Min= -1.16925025E-01 Max=  1.16925024E-01)
                - ROMS Export: vertically integrated v-momentum component
                   (Min= -5.12730072E-03 Max=  6.45913135E-02)
                - ROMS Export: bottom roughness
                   (Min=  3.00000000E-03 Max=  3.00000000E-03)
       65     0 00:32:30  3.933611E-04 9.619472E+01 9.619511E+01 1.952860E+10
              (30,01,10)  2.183569E-02 1.204503E-03 3.013141E-01 1.431678E-01
       66     0 00:33:00  4.124366E-04 9.619486E+01 9.619527E+01 1.952860E+10
              (30,01,10)  2.379103E-02 6.125523E-04 2.837658E-01 1.581106E-01
       67     0 00:33:30  4.325152E-04 9.619505E+01 9.619548E+01 1.952861E+10
              (31,01,10)  3.514904E-02 4.404049E-03 2.989136E-01 1.805704E-01
       68     0 00:34:00  4.532478E-04 9.619528E+01 9.619574E+01 1.952862E+10
              (30,01,10)  3.151274E-02 2.052073E-03 3.546292E-01 2.001141E-01
       69     0 00:34:30  4.746776E-04 9.619555E+01 9.619603E+01 1.952862E+10
              (29,01,10)  2.066355E-02 5.429838E-03 3.851375E-01 2.143577E-01
       70     0 00:35:00  4.968295E-04 9.619585E+01 9.619635E+01 1.952863E+10
              (30,01,10)  3.595351E-02 2.318798E-04 3.490840E-01 2.269931E-01
       71     0 00:35:30  5.197396E-04 9.619616E+01 9.619668E+01 1.952864E+10
              (30,01,10)  3.864425E-02 6.663139E-04 3.355111E-01 2.410315E-01
       72     0 00:36:00  5.434462E-04 9.619649E+01 9.619703E+01 1.952865E+10
              (30,01,10)  4.124969E-02 1.213201E-03 3.342502E-01 2.562066E-01
      WAV2OCN   - (05) imported and (06) exported fields,    t = 20030101.003600
                - SWAN coupling exchanges wait clock (s):
                   (Recv= 0.00000000E+00 Send= 4.00000000E-03)
      OCN2WAV   - (06) imported and (05) exported fields,    t =     0 00:36:00
                - ROMS coupling exchanges wait clock (s):
                   (Recv= 0.00000000E+00 Send= 0.00000000E+00)
                - ROMS Import: wave direction
                   (Min=  0.00000000E+00 Max=  6.28317679E+00)
                - ROMS Import: significant wave height
                   (Min=  6.15461230E-01 Max=  1.99690139E+00)
                - ROMS Import: average wave length
                   (Min=  4.17754517E+01 Max=  1.18911308E+02)
                - ROMS Import: surface wave relative peak period
                   (Min=  9.51826668E+00 Max=  1.05963402E+01)
                - ROMS Import: bottom wave period
                   (Min=  1.00401011E+01 Max=  1.06435900E+01)
                - ROMS Import: wave bottom orbital velocity
                   (Min=  1.15777440E-01 Max=  9.89237189E-01)
                - ROMS Export: bathymetry
                   (Min=  1.84000000E+00 Max=  2.00000000E+01)
                - ROMS Export: free-surface
                   (Min= -7.62160748E-02 Max=  7.62160748E-02)
                - ROMS Export: vertically integrated u-momentum component
                   (Min= -2.48466435E-01 Max=  2.48466469E-01)
                - ROMS Export: vertically integrated v-momentum component
                   (Min= -3.28758116E-02 Max=  7.96893277E-02)
                - ROMS Export: bottom roughness
                   (Min=  3.00000000E-03 Max=  3.00000000E-03)
       73     0 00:36:30  5.714091E-04 9.619673E+01 9.619730E+01 1.952866E+10
              (30,01,10)  4.344577E-02 2.097741E-03 3.312581E-01 2.698954E-01
       74     0 00:37:00  5.968188E-04 9.619704E+01 9.619764E+01 1.952866E+10
              (30,01,10)  4.554337E-02 2.989494E-03 3.143379E-01 2.903114E-01
       75     0 00:37:30  6.233327E-04 9.619734E+01 9.619796E+01 1.952867E+10
              (31,01,10)  6.368392E-02 6.814360E-04 3.133807E-01 3.151996E-01
       76     0 00:38:00  6.507891E-04 9.619761E+01 9.619826E+01 1.952868E+10
              (31,01,10)  6.866454E-02 1.237999E-03 3.469810E-01 3.395913E-01
       77     0 00:38:30  6.792341E-04 9.619784E+01 9.619852E+01 1.952869E+10
              (30,01,10)  5.584517E-02 1.986766E-03 3.795022E-01 3.616406E-01
       78     0 00:39:00  7.087119E-04 9.619806E+01 9.619877E+01 1.952870E+10
              (30,01,10)  5.812343E-02 2.710549E-03 3.661347E-01 3.818986E-01
       79     0 00:39:30  7.392744E-04 9.619825E+01 9.619899E+01 1.952871E+10
              (31,01,10)  7.899459E-02 3.384302E-03 3.438233E-01 4.012500E-01
       80     0 00:40:00  7.709736E-04 9.619844E+01 9.619921E+01 1.952872E+10
              (31,01,10)  8.237917E-02 3.893998E-03 3.375163E-01 4.209763E-01
      WAV2OCN   - (05) imported and (06) exported fields,    t = 20030101.004000
                - SWAN coupling exchanges wait clock (s):
                   (Recv= 0.00000000E+00 Send= 0.00000000E+00)
      OCN2WAV   - (06) imported and (05) exported fields,    t =     0 00:40:00
                - ROMS coupling exchanges wait clock (s):
                   (Recv= 0.00000000E+00 Send= 4.00100000E-03)
                - ROMS Import: wave direction
                   (Min=  0.00000000E+00 Max=  6.28318424E+00)
                - ROMS Import: significant wave height
                   (Min=  7.36959159E-01 Max=  2.09040093E+00)
                - ROMS Import: average wave length
                   (Min=  4.13653679E+01 Max=  1.17461670E+02)
                - ROMS Import: surface wave relative peak period
                   (Min=  9.51826668E+00 Max=  1.05963402E+01)
                - ROMS Import: bottom wave period
                   (Min=  1.00378389E+01 Max=  1.05631781E+01)
                - ROMS Import: wave bottom orbital velocity
                   (Min=  1.35424688E-01 Max=  1.01096749E+00)
                - ROMS Export: bathymetry
                   (Min=  1.83999982E+00 Max=  2.00000000E+01)
                - ROMS Export: free-surface
                   (Min= -8.44791795E-02 Max=  8.44791795E-02)
                - ROMS Export: vertically integrated u-momentum component
                   (Min= -4.19244284E-01 Max=  4.19244901E-01)
                - ROMS Export: vertically integrated v-momentum component
                   (Min= -7.78651695E-02 Max=  9.52796251E-02)
                - ROMS Export: bottom roughness
                   (Min=  3.00000000E-03 Max=  3.00000000E-03)
       81     0 00:40:30  8.072040E-04 9.619853E+01 9.619934E+01 1.952873E+10
              (31,01,10)  8.516453E-02 4.642753E-03 3.344697E-01 4.392663E-01
       82     0 00:41:00  8.414103E-04 9.619871E+01 9.619955E+01 1.952874E+10
              (31,01,10)  8.793899E-02 5.153955E-03 3.236489E-01 4.603649E-01
       83     0 00:41:30  8.769439E-04 9.619889E+01 9.619977E+01 1.952875E+10
              (31,01,10)  9.170914E-02 4.519205E-03 3.276146E-01 4.860199E-01
       84     0 00:42:00  9.138037E-04 9.619908E+01 9.619999E+01 1.952876E+10
              (31,01,10)  9.584488E-02 4.642636E-03 3.569169E-01 5.109480E-01
       85     0 00:42:30  9.520129E-04 9.619926E+01 9.620021E+01 1.952877E+10
              (31,01,10)  9.904019E-02 5.047450E-03 3.608644E-01 5.325987E-01
       86     0 00:43:00  9.916158E-04 9.619945E+01 9.620044E+01 1.952878E+10
              (31,01,10)  1.014034E-01 5.377857E-03 3.567406E-01 5.509989E-01
       87     0 00:43:30  1.032666E-03 9.619964E+01 9.620068E+01 1.952878E+10
              (31,01,10)  1.036129E-01 5.666385E-03 3.541557E-01 5.669473E-01
       88     0 00:44:00  1.075218E-03 9.619984E+01 9.620091E+01 1.952879E+10
              (31,01,10)  1.057516E-01 5.741069E-03 3.478039E-01 5.816837E-01
      WAV2OCN   - (05) imported and (06) exported fields,    t = 20030101.004400
                - SWAN coupling exchanges wait clock (s):
                   (Recv= 0.00000000E+00 Send= 0.00000000E+00)
      OCN2WAV   - (06) imported and (05) exported fields,    t =     0 00:44:00
                - ROMS coupling exchanges wait clock (s):
                   (Recv= 0.00000000E+00 Send= 0.00000000E+00)
                - ROMS Import: wave direction
                   (Min=  0.00000000E+00 Max=  6.28318264E+00)
                - ROMS Import: significant wave height
                   (Min=  8.41796041E-01 Max=  2.18128324E+00)
                - ROMS Import: average wave length
                   (Min=  4.09863396E+01 Max=  1.15996170E+02)
                - ROMS Import: surface wave relative peak period
                   (Min=  9.51826668E+00 Max=  1.05963402E+01)
                - ROMS Import: bottom wave period
                   (Min=  9.99969101E+00 Max=  1.05186968E+01)
                - ROMS Import: wave bottom orbital velocity
                   (Min=  1.52334690E-01 Max=  1.02402043E+00)
                - ROMS Export: bathymetry
                   (Min=  1.83998703E+00 Max=  2.00000000E+01)
                - ROMS Export: free-surface
                   (Min= -9.26393594E-02 Max=  9.26393594E-02)
                - ROMS Export: vertically integrated u-momentum component
                   (Min= -5.80843664E-01 Max=  5.80845076E-01)
                - ROMS Export: vertically integrated v-momentum component
                   (Min= -1.10857239E-01 Max=  9.95885272E-02)
                - ROMS Export: bottom roughness
                   (Min=  3.00000000E-03 Max=  3.00000000E-03)
       89     0 00:44:30  1.122279E-03 9.619995E+01 9.620107E+01 1.952880E+10
              (31,01,10)  1.072351E-01 6.053490E-03 3.468384E-01 5.925649E-01
       90     0 00:45:00  1.168192E-03 9.620015E+01 9.620132E+01 1.952881E+10
              (31,01,10)  1.085873E-01 6.350068E-03 3.384241E-01 6.041809E-01
       91     0 00:45:30  1.215666E-03 9.620034E+01 9.620156E+01 1.952881E+10
              (31,01,10)  1.105900E-01 5.646542E-03 3.367918E-01 6.178503E-01
       92     0 00:46:00  1.264868E-03 9.620053E+01 9.620180E+01 1.952882E+10
              (31,01,10)  1.130801E-01 5.414862E-03 3.609424E-01 6.356883E-01
       93     0 00:46:30  1.315808E-03 9.620070E+01 9.620202E+01 1.952882E+10
              (31,01,10)  1.149325E-01 5.635348E-03 3.696143E-01 6.542485E-01
       94     0 00:47:00  1.368539E-03 9.620086E+01 9.620223E+01 1.952882E+10
              (31,01,10)  1.161200E-01 5.881667E-03 3.649779E-01 6.706784E-01
       95     0 00:47:30  1.423122E-03 9.620101E+01 9.620244E+01 1.952882E+10
              (31,01,10)  1.172355E-01 6.071402E-03 3.618838E-01 6.849221E-01
       96     0 00:48:00  1.479613E-03 9.620115E+01 9.620263E+01 1.952882E+10
              (31,01,10)  1.184086E-01 6.114391E-03 3.586334E-01 6.976653E-01
      WAV2OCN   - (05) imported and (06) exported fields,    t = 20030101.004800
                - SWAN coupling exchanges wait clock (s):
                   (Recv= 0.00000000E+00 Send= 0.00000000E+00)
      OCN2WAV   - (06) imported and (05) exported fields,    t =     0 00:48:00
                - ROMS coupling exchanges wait clock (s):
                   (Recv= 0.00000000E+00 Send= 0.00000000E+00)
                - ROMS Import: wave direction
                   (Min=  0.00000000E+00 Max=  6.28315708E+00)
                - ROMS Import: significant wave height
                   (Min=  9.26208079E-01 Max=  2.22547174E+00)
                - ROMS Import: average wave length
                   (Min=  4.06276894E+01 Max=  1.14393456E+02)
                - ROMS Import: surface wave relative peak period
                   (Min=  9.51826668E+00 Max=  1.05963402E+01)
                - ROMS Import: bottom wave period
                   (Min=  9.81541443E+00 Max=  1.05837221E+01)
                - ROMS Import: wave bottom orbital velocity
                   (Min=  1.66258425E-01 Max=  1.03453183E+00)
                - ROMS Export: bathymetry
                   (Min=  1.83994836E+00 Max=  2.00000000E+01)
                - ROMS Export: free-surface
                   (Min= -1.00686672E-01 Max=  1.00686672E-01)
                - ROMS Export: vertically integrated u-momentum component
                   (Min= -6.97518029E-01 Max=  6.97520433E-01)
                - ROMS Export: vertically integrated v-momentum component
                   (Min= -1.35396834E-01 Max=  1.10730707E-01)
                - ROMS Export: bottom roughness
                   (Min=  3.00000000E-03 Max=  3.00000000E-03)
       97     0 00:48:30  1.540405E-03 9.620120E+01 9.620274E+01 1.952882E+10
              (31,01,10)  1.191212E-01 6.405665E-03 3.593041E-01 7.072804E-01
       98     0 00:49:00  1.601154E-03 9.620132E+01 9.620292E+01 1.952881E+10
              (31,01,10)  1.198160E-01 6.829767E-03 3.517754E-01 7.193263E-01
       99     0 00:49:30  1.663735E-03 9.620143E+01 9.620309E+01 1.952880E+10
              (31,01,10)  1.209028E-01 6.452852E-03 3.471039E-01 7.319160E-01
      100     0 00:50:00  1.728465E-03 9.620152E+01 9.620325E+01 1.952879E+10
              (31,01,10)  1.224467E-01 6.305003E-03 3.640714E-01 7.433873E-01
      101     0 00:50:30  1.795328E-03 9.620160E+01 9.620339E+01 1.952878E+10
              (31,01,10)  1.236432E-01 6.547479E-03 3.722877E-01 7.530575E-01
      102     0 00:51:00  1.864379E-03 9.620166E+01 9.620352E+01 1.952877E+10
              (31,01,10)  1.243083E-01 6.781938E-03 3.690617E-01 7.613763E-01
      103     0 00:51:30  1.935678E-03 9.620171E+01 9.620364E+01 1.952875E+10
              (31,01,10)  1.249037E-01 7.036057E-03 3.681107E-01 7.681996E-01
      104     0 00:52:00  2.009285E-03 9.620174E+01 9.620374E+01 1.952873E+10
              (31,01,10)  1.255896E-01 7.164762E-03 3.642177E-01 7.738927E-01
      WAV2OCN   - (05) imported and (06) exported fields,    t = 20030101.005200
                - SWAN coupling exchanges wait clock (s):
                   (Recv= 0.00000000E+00 Send= 0.00000000E+00)
      OCN2WAV   - (06) imported and (05) exported fields,    t =     0 00:52:00
                - ROMS coupling exchanges wait clock (s):
                   (Recv= 0.00000000E+00 Send= 0.00000000E+00)
                - ROMS Import: wave direction
                   (Min=  0.00000000E+00 Max=  6.28315015E+00)
                - ROMS Import: significant wave height
                   (Min=  9.74926710E-01 Max=  2.26442885E+00)
                - ROMS Import: average wave length
                   (Min=  4.02761574E+01 Max=  1.12727028E+02)
                - ROMS Import: surface wave relative peak period
                   (Min=  9.51826668E+00 Max=  1.05963402E+01)
                - ROMS Import: bottom wave period
                   (Min=  9.61272717E+00 Max=  1.05970058E+01)
                - ROMS Import: wave bottom orbital velocity
                   (Min=  1.77312195E-01 Max=  1.04315448E+00)
                - ROMS Export: bathymetry
                   (Min=  1.83991838E+00 Max=  2.00000000E+01)
                - ROMS Export: free-surface
                   (Min= -1.08611314E-01 Max=  1.08611314E-01)
                - ROMS Export: vertically integrated u-momentum component
                   (Min= -7.72403764E-01 Max=  7.72406883E-01)
                - ROMS Export: vertically integrated v-momentum component
                   (Min= -1.63368453E-01 Max=  1.21733951E-01)
                - ROMS Export: bottom roughness
                   (Min=  3.00000000E-03 Max=  3.00000000E-03)
      105     0 00:52:30  2.086995E-03 9.620168E+01 9.620377E+01 1.952871E+10
              (31,01,10)  1.258554E-01 7.456044E-03 3.636082E-01 7.770372E-01
      106     0 00:53:00  2.165735E-03 9.620169E+01 9.620385E+01 1.952868E+10
              (31,01,10)  1.259183E-01 7.832551E-03 3.573160E-01 7.827665E-01
      107     0 00:53:30  2.246582E-03 9.620168E+01 9.620393E+01 1.952866E+10
              (32,01,10)  1.394511E-01 6.113676E-03 3.397027E-01 7.892350E-01
      108     0 00:54:00  2.329981E-03 9.620166E+01 9.620399E+01 1.952863E+10
              (31,01,10)  1.269859E-01 7.305787E-03 3.646503E-01 7.951870E-01
      109     0 00:54:30  2.415883E-03 9.620163E+01 9.620404E+01 1.952860E+10
              (31,01,10)  1.274810E-01 7.454659E-03 3.735462E-01 7.999873E-01
      110     0 00:55:00  2.504326E-03 9.620159E+01 9.620409E+01 1.952857E+10
              (31,01,10)  1.276757E-01 7.599043E-03 3.703821E-01 8.089531E-01
      111     0 00:55:30  2.595348E-03 9.620154E+01 9.620414E+01 1.952854E+10
              (31,01,10)  1.278799E-01 7.704202E-03 3.677627E-01 8.180430E-01
      112     0 00:56:00  2.688980E-03 9.620149E+01 9.620417E+01 1.952851E+10
              (31,01,10)  1.280573E-01 7.717373E-03 3.650672E-01 8.260783E-01
      WAV2OCN   - (05) imported and (06) exported fields,    t = 20030101.005600
                - SWAN coupling exchanges wait clock (s):
                   (Recv= 0.00000000E+00 Send= 0.00000000E+00)
      OCN2WAV   - (06) imported and (05) exported fields,    t =     0 00:56:00
                - ROMS coupling exchanges wait clock (s):
                   (Recv= 0.00000000E+00 Send= 0.00000000E+00)
                - ROMS Import: wave direction
                   (Min=  0.00000000E+00 Max=  6.28316613E+00)
                - ROMS Import: significant wave height
                   (Min=  1.00673270E+00 Max=  2.28841615E+00)
                - ROMS Import: average wave length
                   (Min=  3.99198265E+01 Max=  1.11057274E+02)
                - ROMS Import: surface wave relative peak period
                   (Min=  9.51826668E+00 Max=  1.05963402E+01)
                - ROMS Import: bottom wave period
                   (Min=  9.44170189E+00 Max=  1.05774078E+01)
                - ROMS Import: wave bottom orbital velocity
                   (Min=  1.85825467E-01 Max=  1.04972577E+00)
                - ROMS Export: bathymetry
                   (Min=  1.83994812E+00 Max=  2.00000000E+01)
                - ROMS Export: free-surface
                   (Min= -1.17857640E-01 Max=  1.16403630E-01)
                - ROMS Export: vertically integrated u-momentum component
                   (Min= -8.25584050E-01 Max=  8.25586742E-01)
                - ROMS Export: vertically integrated v-momentum component
                   (Min= -1.89145862E-01 Max=  1.30207466E-01)
                - ROMS Export: bottom roughness
                   (Min=  3.00000000E-03 Max=  3.00000000E-03)
      113     0 00:56:30  2.786471E-03 9.620137E+01 9.620416E+01 1.952848E+10
              (31,01,10)  1.279232E-01 7.866349E-03 3.643311E-01 8.315195E-01
      114     0 00:57:00  2.885807E-03 9.620132E+01 9.620420E+01 1.952845E+10
              (31,01,10)  1.275874E-01 8.006569E-03 3.587481E-01 8.402843E-01
      115     0 00:57:30  2.987357E-03 9.620127E+01 9.620425E+01 1.952843E+10
              (32,01,10)  1.435699E-01 8.507242E-03 3.410898E-01 8.483673E-01
      116     0 00:58:00  3.091634E-03 9.620122E+01 9.620431E+01 1.952840E+10
              (32,01,10)  1.439792E-01 8.876966E-03 3.519668E-01 8.552761E-01
      117     0 00:58:30  3.198533E-03 9.620117E+01 9.620437E+01 1.952838E+10
              (31,01,10)  1.272888E-01 7.442346E-03 3.706521E-01 8.609664E-01
      118     0 00:59:00  3.308053E-03 9.620113E+01 9.620444E+01 1.952836E+10
              (32,01,10)  1.444169E-01 9.496377E-03 3.489745E-01 8.656572E-01
      119     0 00:59:30  3.420196E-03 9.620110E+01 9.620452E+01 1.952835E+10
              (32,01,10)  1.444934E-01 9.811458E-03 3.491606E-01 8.695372E-01
      120     0 01:00:00  3.534959E-03 9.620106E+01 9.620460E+01 1.952833E+10
              (32,01,10)  1.445054E-01 1.008186E-02 3.466469E-01 8.727643E-01
      WAV2OCN   - (05) imported and (06) exported fields,    t = 20030101.010000
                - SWAN coupling exchanges wait clock (s):
                   (Recv= 0.00000000E+00 Send= 4.00000000E-03)
      OCN2WAV   - (06) imported and (05) exported fields,    t =     0 01:00:00
                - ROMS coupling exchanges wait clock (s):
                   (Recv= 0.00000000E+00 Send= 0.00000000E+00)
                - ROMS Import: wave direction
                   (Min=  0.00000000E+00 Max=  6.28318477E+00)
                - ROMS Import: significant wave height
                   (Min=  1.02757871E+00 Max=  2.30566955E+00)
                - ROMS Import: average wave length
                   (Min=  3.94926186E+01 Max=  1.09402611E+02)
                - ROMS Import: surface wave relative peak period
                   (Min=  9.51826668E+00 Max=  1.05963402E+01)
                - ROMS Import: bottom wave period
                   (Min=  9.32139683E+00 Max=  1.05572653E+01)
                - ROMS Import: wave bottom orbital velocity
                   (Min=  1.92212358E-01 Max=  1.05341196E+00)
                - ROMS Export: bathymetry
                   (Min=  1.83999735E+00 Max=  2.00000000E+01)
                - ROMS Export: free-surface
                   (Min= -1.31904869E-01 Max=  1.24054126E-01)
                - ROMS Export: vertically integrated u-momentum component
                   (Min= -8.70860273E-01 Max=  8.70863240E-01)
                - ROMS Export: vertically integrated v-momentum component
                   (Min= -2.02563026E-01 Max=  1.43350323E-01)
                - ROMS Export: bottom roughness
                   (Min=  3.00000000E-03 Max=  3.00000000E-03)
      WRT_HIS   - wrote history  fields (Index=1,1) into time record = 0000002
      WRT_RST   - wrote re-start fields (Index=1,1) into time record = 0000001
      121     0 01:00:30  3.653120E-03 9.620100E+01 9.620465E+01 1.952833E+10
              (32,01,10)  1.442641E-01 1.039401E-02 3.446419E-01 8.738146E-01
      122     0 01:01:00  3.773577E-03 9.620098E+01 9.620476E+01 1.952832E+10
              (32,01,10)  1.439166E-01 1.052919E-02 3.393133E-01 8.775066E-01
      123     0 01:01:30  3.896129E-03 9.620099E+01 9.620488E+01 1.952832E+10
              (32,01,10)  1.436778E-01 1.035457E-02 3.419316E-01 8.809068E-01
      124     0 01:02:00  4.021380E-03 9.620100E+01 9.620502E+01 1.952832E+10
              (32,01,10)  1.435601E-01 1.049802E-02 3.509883E-01 8.838094E-01
      125     0 01:02:30  4.149220E-03 9.620102E+01 9.620517E+01 1.952832E+10
              (32,01,10)  1.433974E-01 1.061951E-02 3.497813E-01 8.858094E-01
      126     0 01:03:00  4.279666E-03 9.620105E+01 9.620533E+01 1.952833E+10
              (32,01,10)  1.432275E-01 1.065555E-02 3.481474E-01 8.873398E-01
      127     0 01:03:30  4.412759E-03 9.620110E+01 9.620551E+01 1.952835E+10
              (32,01,10)  1.430529E-01 1.071097E-02 3.489431E-01 8.885088E-01
      128     0 01:04:00  4.548543E-03 9.620115E+01 9.620570E+01 1.952836E+10
              (32,01,10)  1.428248E-01 1.074590E-02 3.476387E-01 8.895419E-01
      WAV2OCN   - (05) imported and (06) exported fields,    t = 20030101.010400
                - SWAN coupling exchanges wait clock (s):
                   (Recv= 0.00000000E+00 Send= 4.00100000E-03)
      OCN2WAV   - (06) imported and (05) exported fields,    t =     0 01:04:00
                - ROMS coupling exchanges wait clock (s):
                   (Recv= 0.00000000E+00 Send= 0.00000000E+00)
                - ROMS Import: wave direction
                   (Min=  0.00000000E+00 Max=  6.28318477E+00)
                - ROMS Import: significant wave height
                   (Min=  1.03794003E+00 Max=  2.32428789E+00)
                - ROMS Import: average wave length
                   (Min=  3.91050377E+01 Max=  1.07772781E+02)
                - ROMS Import: surface wave relative peak period
                   (Min=  9.51826668E+00 Max=  1.05963402E+01)
                - ROMS Import: bottom wave period
                   (Min=  9.17484283E+00 Max=  1.05145521E+01)
                - ROMS Import: wave bottom orbital velocity
                   (Min=  1.96898863E-01 Max=  1.05537760E+00)
                - ROMS Export: bathymetry
                   (Min=  1.83999718E+00 Max=  2.00000000E+01)
                - ROMS Export: free-surface
                   (Min= -1.31814320E-01 Max=  1.31553481E-01)
                - ROMS Export: vertically integrated u-momentum component
                   (Min= -8.87722794E-01 Max=  8.87725262E-01)
                - ROMS Export: vertically integrated v-momentum component
                   (Min= -2.12412981E-01 Max=  1.62600615E-01)
                - ROMS Export: bottom roughness
                   (Min=  3.00000000E-03 Max=  3.00000000E-03)
      129     0 01:04:30  4.687508E-03 9.620118E+01 9.620587E+01 1.952838E+10
              (32,01,10)  1.424064E-01 1.083176E-02 3.453390E-01 8.893174E-01
      130     0 01:05:00  4.829287E-03 9.620125E+01 9.620608E+01 1.952840E+10
              (32,01,10)  1.418901E-01 1.082156E-02 3.402205E-01 8.906971E-01
      131     0 01:05:30  4.973325E-03 9.620134E+01 9.620631E+01 1.952843E+10
              (32,01,10)  1.414164E-01 1.054296E-02 3.421608E-01 8.922966E-01
      132     0 01:06:00  5.120298E-03 9.620143E+01 9.620655E+01 1.952845E+10
              (32,01,10)  1.410471E-01 1.051424E-02 3.489326E-01 8.937135E-01
      133     0 01:06:30  5.270096E-03 9.620153E+01 9.620680E+01 1.952848E+10
              (32,01,10)  1.406292E-01 1.051105E-02 3.479675E-01 8.945393E-01
      134     0 01:07:00  5.422739E-03 9.620164E+01 9.620706E+01 1.952851E+10
              (32,01,10)  1.402263E-01 1.043177E-02 3.457046E-01 8.950875E-01
      135     0 01:07:30  5.578236E-03 9.620175E+01 9.620732E+01 1.952854E+10
              (32,01,10)  1.398672E-01 1.038604E-02 3.467021E-01 8.954284E-01
      136     0 01:08:00  5.736584E-03 9.620185E+01 9.620759E+01 1.952857E+10
              (32,01,10)  1.394655E-01 1.034425E-02 3.458442E-01 8.957977E-01
      WAV2OCN   - (05) imported and (06) exported fields,    t = 20030101.010800
                - SWAN coupling exchanges wait clock (s):
                   (Recv= 0.00000000E+00 Send= 0.00000000E+00)
      OCN2WAV   - (06) imported and (05) exported fields,    t =     0 01:08:00
                - ROMS coupling exchanges wait clock (s):
                   (Recv= 0.00000000E+00 Send= 0.00000000E+00)
                - ROMS Import: wave direction
                   (Min=  0.00000000E+00 Max=  6.28318477E+00)
                - ROMS Import: significant wave height
                   (Min=  1.03672969E+00 Max=  2.33974791E+00)
                - ROMS Import: average wave length
                   (Min=  3.87827873E+01 Max=  1.06182198E+02)
                - ROMS Import: surface wave relative peak period
                   (Min=  9.51826668E+00 Max=  1.05963402E+01)
                - ROMS Import: bottom wave period
                   (Min=  9.08489990E+00 Max=  1.04651718E+01)
                - ROMS Import: wave bottom orbital velocity
                   (Min=  2.00265765E-01 Max=  1.05716681E+00)
                - ROMS Export: bathymetry
                   (Min=  1.83999698E+00 Max=  2.00000000E+01)
                - ROMS Export: free-surface
                   (Min= -1.38892558E-01 Max=  1.38892558E-01)
                - ROMS Export: vertically integrated u-momentum component
                   (Min= -8.94587466E-01 Max=  8.94588408E-01)
                - ROMS Export: vertically integrated v-momentum component
                   (Min= -2.28636125E-01 Max=  1.71809134E-01)
                - ROMS Export: bottom roughness
                   (Min=  3.00000000E-03 Max=  3.00000000E-03)
      137     0 01:08:30  5.897998E-03 9.620193E+01 9.620783E+01 1.952861E+10
              (32,01,10)  1.388815E-01 1.037160E-02 3.433954E-01 8.976965E-01
      138     0 01:09:00  6.062529E-03 9.620204E+01 9.620811E+01 1.952864E+10
[...]
              (27,01,10)  8.591341E-02 1.321105E-02 3.707137E-01 1.353512E+00
     1400     0 11:40:00  1.368641E-01 9.618078E+01 9.631764E+01 1.952481E+10
              (27,01,10)  8.543584E-02 1.310111E-02 3.686976E-01 1.350533E+00
      WAV2OCN   - (05) imported and (06) exported fields,    t = 20030101.114000
                - SWAN coupling exchanges wait clock (s):
                   (Recv= 0.00000000E+00 Send= 0.00000000E+00)
      OCN2WAV   - (06) imported and (05) exported fields,    t =     0 11:40:00
                - ROMS coupling exchanges wait clock (s):
                   (Recv= 0.00000000E+00 Send= 0.00000000E+00)
                - ROMS Import: wave direction
                   (Min=  4.79368996E-06 Max=  6.28318477E+00)
                - ROMS Import: significant wave height
                   (Min=  9.88392472E-01 Max=  2.65721679E+00)
                - ROMS Import: average wave length
                   (Min=  3.65476494E+01 Max=  8.50193863E+01)
                - ROMS Import: surface wave relative peak period
                   (Min=  9.51826668E+00 Max=  1.05963402E+01)
                - ROMS Import: bottom wave period
                   (Min=  8.88526821E+00 Max=  1.03070192E+01)
                - ROMS Import: wave bottom orbital velocity
                   (Min=  2.09865972E-01 Max=  1.07299232E+00)
                - ROMS Export: bathymetry
                   (Min=  1.84965923E+00 Max=  2.00200388E+01)
                - ROMS Export: free-surface
                   (Min= -9.50793973E-02 Max=  4.44858864E-02)
                - ROMS Export: vertically integrated u-momentum component
                   (Min= -1.32818857E+00 Max=  7.47499988E-01)
                - ROMS Export: vertically integrated v-momentum component
                   (Min= -3.66107259E-01 Max=  3.13739711E-01)
                - ROMS Export: bottom roughness
                   (Min=  3.00000000E-03 Max=  3.00000000E-03)
     1401     0 11:40:30  1.364755E-01 9.618078E+01 9.631725E+01 1.952481E+10
              (27,01,10)  8.495223E-02 1.304968E-02 3.689019E-01 1.347462E+00
     1402     0 11:41:00  1.360813E-01 9.618079E+01 9.631687E+01 1.952482E+10
              (27,01,10)  8.450939E-02 1.297531E-02 3.698075E-01 1.344425E+00
     1403     0 11:41:30  1.356837E-01 9.618080E+01 9.631648E+01 1.952483E+10
              (27,01,10)  8.408795E-02 1.285503E-02 3.702968E-01 1.341302E+00
     1404     0 11:42:00  1.352825E-01 9.618081E+01 9.631609E+01 1.952484E+10
              (27,01,10)  8.359209E-02 1.269442E-02 3.694021E-01 1.338247E+00
     1405     0 11:42:30  1.348776E-01 9.618083E+01 9.631571E+01 1.952485E+10
              (27,01,10)  8.303549E-02 1.261714E-02 3.672356E-01 1.335194E+00
     1406     0 11:43:00  1.344692E-01 9.618085E+01 9.631532E+01 1.952486E+10
              (27,01,10)  8.248841E-02 1.252187E-02 3.685545E-01 1.332102E+00
     1407     0 11:43:30  1.340573E-01 9.618087E+01 9.631493E+01 1.952487E+10
              (27,01,10)  8.195472E-02 1.241356E-02 3.685719E-01 1.329012E+00
     1408     0 11:44:00  1.336419E-01 9.618090E+01 9.631454E+01 1.952488E+10
              (27,01,10)  8.143567E-02 1.233225E-02 3.681132E-01 1.325905E+00
      WAV2OCN   - (05) imported and (06) exported fields,    t = 20030101.114400
                - SWAN coupling exchanges wait clock (s):
                   (Recv= 0.00000000E+00 Send= 0.00000000E+00)
      OCN2WAV   - (06) imported and (05) exported fields,    t =     0 11:44:00
                - ROMS coupling exchanges wait clock (s):
                   (Recv= 0.00000000E+00 Send= 0.00000000E+00)
                - ROMS Import: wave direction
                   (Min=  4.26105774E-06 Max=  6.28318424E+00)
                - ROMS Import: significant wave height
                   (Min=  9.90248978E-01 Max=  2.65490651E+00)
                - ROMS Import: average wave length
                   (Min=  3.65662766E+01 Max=  8.50586319E+01)
                - ROMS Import: surface wave relative peak period
                   (Min=  9.51826668E+00 Max=  1.05963402E+01)
                - ROMS Import: bottom wave period
                   (Min=  8.88073730E+00 Max=  1.03040724E+01)
                - ROMS Import: wave bottom orbital velocity
                   (Min=  2.09959775E-01 Max=  1.07315016E+00)
                - ROMS Export: bathymetry
                   (Min=  1.84965320E+00 Max=  2.00197140E+01)
                - ROMS Export: free-surface
                   (Min= -9.19613918E-02 Max=  3.58731555E-02)
                - ROMS Export: vertically integrated u-momentum component
                   (Min= -1.30349113E+00 Max=  7.52128931E-01)
                - ROMS Export: vertically integrated v-momentum component
                   (Min= -3.61898148E-01 Max=  3.09473853E-01)
                - ROMS Export: bottom roughness
                   (Min=  3.00000000E-03 Max=  3.00000000E-03)
     1409     0 11:44:30  1.332246E-01 9.618093E+01 9.631416E+01 1.952489E+10
              (27,01,10)  8.092172E-02 1.227555E-02 3.688707E-01 1.322729E+00
     1410     0 11:45:00  1.328021E-01 9.618096E+01 9.631377E+01 1.952491E+10
              (27,01,10)  8.043650E-02 1.220968E-02 3.693249E-01 1.319627E+00
     1411     0 11:45:30  1.323765E-01 9.618100E+01 9.631337E+01 1.952492E+10
              (27,01,10)  7.995863E-02 1.212086E-02 3.698148E-01 1.316405E+00
     1412     0 11:46:00  1.319474E-01 9.618103E+01 9.631298E+01 1.952493E+10
              (27,01,10)  7.942014E-02 1.193638E-02 3.695224E-01 1.313238E+00
     1413     0 11:46:30  1.315150E-01 9.618107E+01 9.631259E+01 1.952494E+10
              (27,01,10)  7.881267E-02 1.185010E-02 3.665221E-01 1.310067E+00
     1414     0 11:47:00  1.310793E-01 9.618111E+01 9.631219E+01 1.952495E+10
              (27,01,10)  7.821348E-02 1.178207E-02 3.674327E-01 1.306866E+00
     1415     0 11:47:30  1.306403E-01 9.618115E+01 9.631179E+01 1.952497E+10
              (27,01,10)  7.763863E-02 1.167717E-02 3.682495E-01 1.303667E+00
     1416     0 11:48:00  1.301980E-01 9.618119E+01 9.631139E+01 1.952498E+10
              (27,01,10)  7.707533E-02 1.158295E-02 3.678936E-01 1.300447E+00
      WAV2OCN   - (05) imported and (06) exported fields,    t = 20030101.114800
                - SWAN coupling exchanges wait clock (s):
                   (Recv= 4.00000000E-03 Send= 0.00000000E+00)
      OCN2WAV   - (06) imported and (05) exported fields,    t =     0 11:48:00
                - ROMS coupling exchanges wait clock (s):
                   (Recv= 0.00000000E+00 Send= 0.00000000E+00)
                - ROMS Import: wave direction
                   (Min=  4.26105774E-06 Max=  6.28318477E+00)
                - ROMS Import: significant wave height
                   (Min=  9.92266059E-01 Max=  2.64941192E+00)
                - ROMS Import: average wave length
                   (Min=  3.65839539E+01 Max=  8.50616302E+01)
                - ROMS Import: surface wave relative peak period
                   (Min=  9.51826668E+00 Max=  1.05963402E+01)
                - ROMS Import: bottom wave period
                   (Min=  8.87641716E+00 Max=  1.03050108E+01)
                - ROMS Import: wave bottom orbital velocity
                   (Min=  2.10062355E-01 Max=  1.07321465E+00)
                - ROMS Export: bathymetry
                   (Min=  1.84964513E+00 Max=  2.00193943E+01)
                - ROMS Export: free-surface
                   (Min= -8.86561183E-02 Max=  3.21692559E-02)
                - ROMS Export: vertically integrated u-momentum component
                   (Min= -1.27770522E+00 Max=  7.56712847E-01)
                - ROMS Export: vertically integrated v-momentum component
                   (Min= -3.57597659E-01 Max=  3.04999526E-01)
                - ROMS Export: bottom roughness
                   (Min=  3.00000000E-03 Max=  3.00000000E-03)
     1417     0 11:48:30  1.297539E-01 9.618124E+01 9.631099E+01 1.952499E+10
              (27,01,10)  7.651371E-02 1.151939E-02 3.682827E-01 1.297091E+00
     1418     0 11:49:00  1.293050E-01 9.618128E+01 9.631059E+01 1.952500E+10
              (27,01,10)  7.596602E-02 1.146071E-02 3.687999E-01 1.293856E+00
     1419     0 11:49:30  1.288531E-01 9.618132E+01 9.631018E+01 1.952501E+10
              (27,01,10)  7.543252E-02 1.134716E-02 3.696271E-01 1.290476E+00
     1420     0 11:50:00  1.283979E-01 9.618137E+01 9.630977E+01 1.952503E+10
              (27,01,10)  7.483659E-02 1.115622E-02 3.688048E-01 1.287167E+00
     1421     0 11:50:30  1.279396E-01 9.618141E+01 9.630935E+01 1.952504E+10
              (27,01,10)  7.416903E-02 1.106948E-02 3.659499E-01 1.283860E+00
     1422     0 11:51:00  1.274781E-01 9.618146E+01 9.630893E+01 1.952505E+10
              (27,01,10)  7.351353E-02 1.099451E-02 3.670154E-01 1.280515E+00
     1423     0 11:51:30  1.270136E-01 9.618150E+01 9.630851E+01 1.952506E+10
              (27,01,10)  7.288120E-02 1.086987E-02 3.679632E-01 1.277174E+00
     1424     0 11:52:00  1.265459E-01 9.618154E+01 9.630809E+01 1.952507E+10
              (27,01,10)  7.226696E-02 1.077411E-02 3.672818E-01 1.273807E+00
      WAV2OCN   - (05) imported and (06) exported fields,    t = 20030101.115200
                - SWAN coupling exchanges wait clock (s):
                   (Recv= 0.00000000E+00 Send= 0.00000000E+00)
      OCN2WAV   - (06) imported and (05) exported fields,    t =     0 11:52:00
                - ROMS coupling exchanges wait clock (s):
                   (Recv= 0.00000000E+00 Send= 0.00000000E+00)
                - ROMS Import: wave direction
                   (Min=  4.26105774E-06 Max=  6.28318477E+00)
                - ROMS Import: significant wave height
                   (Min=  9.94386315E-01 Max=  2.64553928E+00)
                - ROMS Import: average wave length
                   (Min=  3.66015511E+01 Max=  8.50313187E+01)
                - ROMS Import: surface wave relative peak period
                   (Min=  9.51826668E+00 Max=  1.05963402E+01)
                - ROMS Import: bottom wave period
                   (Min=  8.87219334E+00 Max=  1.03048191E+01)
                - ROMS Import: wave bottom orbital velocity
                   (Min=  2.10172594E-01 Max=  1.07299960E+00)
                - ROMS Export: bathymetry
                   (Min=  1.84963541E+00 Max=  2.00190806E+01)
                - ROMS Export: free-surface
                   (Min= -8.51267822E-02 Max=  3.37106529E-02)
                - ROMS Export: vertically integrated u-momentum component
                   (Min= -1.25076461E+00 Max=  7.61184775E-01)
                - ROMS Export: vertically integrated v-momentum component
                   (Min= -3.53419790E-01 Max=  3.00321826E-01)
                - ROMS Export: bottom roughness
                   (Min=  3.00000000E-03 Max=  3.00000000E-03)
     1425     0 11:52:30  1.260765E-01 9.618159E+01 9.630767E+01 1.952509E+10
              (27,01,10)  7.165681E-02 1.071801E-02 3.678826E-01 1.270297E+00
     1426     0 11:53:00  1.256027E-01 9.618163E+01 9.630724E+01 1.952510E+10
              (27,01,10)  7.104921E-02 1.063368E-02 3.686236E-01 1.266913E+00
     1427     0 11:53:30  1.251260E-01 9.618168E+01 9.630680E+01 1.952511E+10
              (27,01,10)  7.046563E-02 1.052612E-02 3.687482E-01 1.263418E+00
     1428     0 11:54:00  1.246462E-01 9.618172E+01 9.630637E+01 1.952512E+10
              (27,01,10)  6.982235E-02 1.034546E-02 3.682581E-01 1.259973E+00
     1429     0 11:54:30  1.241635E-01 9.618176E+01 9.630593E+01 1.952513E+10
              (27,01,10)  6.911019E-02 1.025166E-02 3.658263E-01 1.256526E+00
     1430     0 11:55:00  1.236779E-01 9.618181E+01 9.630548E+01 1.952514E+10
              (27,01,10)  6.840662E-02 1.016913E-02 3.667711E-01 1.253042E+00
     1431     0 11:55:30  1.231895E-01 9.618185E+01 9.630504E+01 1.952515E+10
              (27,01,10)  6.772631E-02 1.004203E-02 3.676348E-01 1.249568E+00
     1432     0 11:56:00  1.226981E-01 9.618189E+01 9.630459E+01 1.952516E+10
              (27,01,10)  6.706357E-02 9.940674E-03 3.671114E-01 1.246060E+00
      WAV2OCN   - (05) imported and (06) exported fields,    t = 20030101.115600
                - SWAN coupling exchanges wait clock (s):
                   (Recv= 0.00000000E+00 Send= 0.00000000E+00)
      OCN2WAV   - (06) imported and (05) exported fields,    t =     0 11:56:00
                - ROMS coupling exchanges wait clock (s):
                   (Recv= 0.00000000E+00 Send= 4.00000000E-03)
                - ROMS Import: wave direction
                   (Min=  4.26105774E-06 Max=  6.28318477E+00)
                - ROMS Import: significant wave height
                   (Min=  9.96645510E-01 Max=  2.64018893E+00)
                - ROMS Import: average wave length
                   (Min=  3.66213493E+01 Max=  8.49759369E+01)
                - ROMS Import: surface wave relative peak period
                   (Min=  9.51826668E+00 Max=  1.05963402E+01)
                - ROMS Import: bottom wave period
                   (Min=  8.86848736E+00 Max=  1.03038216E+01)
                - ROMS Import: wave bottom orbital velocity
                   (Min=  2.10287333E-01 Max=  1.07275975E+00)
                - ROMS Export: bathymetry
                   (Min=  1.84962458E+00 Max=  2.00187734E+01)
                - ROMS Export: free-surface
                   (Min= -8.17369480E-02 Max=  3.50753213E-02)
                - ROMS Export: vertically integrated u-momentum component
                   (Min= -1.22275757E+00 Max=  7.65482455E-01)
                - ROMS Export: vertically integrated v-momentum component
                   (Min= -3.51673406E-01 Max=  2.95465324E-01)
                - ROMS Export: bottom roughness
                   (Min=  3.00000000E-03 Max=  3.00000000E-03)
     1433     0 11:56:30  1.222052E-01 9.618194E+01 9.630414E+01 1.952517E+10
              (27,01,10)  6.640546E-02 9.850553E-03 3.676953E-01 1.242345E+00
     1434     0 11:57:00  1.217081E-01 9.618198E+01 9.630369E+01 1.952518E+10
              (27,01,10)  6.575006E-02 9.780807E-03 3.664779E-01 1.238881E+00
     1435     0 11:57:30  1.212084E-01 9.618202E+01 9.630323E+01 1.952520E+10
              (27,01,10)  6.512330E-02 9.724107E-03 3.671449E-01 1.235244E+00
     1436     0 11:58:00  1.207060E-01 9.618207E+01 9.630277E+01 1.952521E+10
              (27,01,10)  6.442617E-02 9.534968E-03 3.675782E-01 1.231667E+00
     1437     0 11:58:30  1.202009E-01 9.618211E+01 9.630231E+01 1.952522E+10
              (27,01,10)  6.366909E-02 9.451984E-03 3.640881E-01 1.228071E+00
     1438     0 11:59:00  1.196932E-01 9.618215E+01 9.630185E+01 1.952523E+10
              (27,01,10)  6.292360E-02 9.377733E-03 3.652932E-01 1.224446E+00
     1439     0 11:59:30  1.191829E-01 9.618220E+01 9.630138E+01 1.952524E+10
              (27,01,10)  6.218840E-02 9.255041E-03 3.661316E-01 1.220828E+00
     1440     0 12:00:00  1.186700E-01 9.618224E+01 9.630091E+01 1.952524E+10
              (27,01,10)  6.147793E-02 9.168371E-03 3.655744E-01 1.217177E+00
      WAV2OCN   - (05) imported and (06) exported fields,    t = 20030101.120000
                - SWAN coupling exchanges wait clock (s):
                   (Recv= 0.00000000E+00 Send= 0.00000000E+00)
      OCN2WAV   - (06) imported and (05) exported fields,    t =     0 12:00:00
                - ROMS coupling exchanges wait clock (s):
                   (Recv= 0.00000000E+00 Send= 0.00000000E+00)
                - ROMS Import: wave direction
                   (Min=  3.72842553E-06 Max=  6.28318424E+00)
                - ROMS Import: significant wave height
                   (Min=  9.98736560E-01 Max=  2.63492727E+00)
                - ROMS Import: average wave length
                   (Min=  3.66380997E+01 Max=  8.50647125E+01)
                - ROMS Import: surface wave relative peak period
                   (Min=  9.51826668E+00 Max=  1.05963402E+01)
                - ROMS Import: bottom wave period
                   (Min=  8.86490250E+00 Max=  1.03022051E+01)
                - ROMS Import: wave bottom orbital velocity
                   (Min=  2.10404664E-01 Max=  1.07250190E+00)
                - ROMS Export: bathymetry
                   (Min=  1.84961262E+00 Max=  2.00184738E+01)
                - ROMS Export: free-surface
                   (Min= -7.86021880E-02 Max=  3.60176207E-02)
                - ROMS Export: vertically integrated u-momentum component
                   (Min= -1.19356669E+00 Max=  7.69635960E-01)
                - ROMS Export: vertically integrated v-momentum component
                   (Min= -3.49249834E-01 Max=  2.90307470E-01)
                - ROMS Export: bottom roughness
                   (Min=  3.00000000E-03 Max=  3.00000000E-03)
      WRT_HIS   - wrote history  fields (Index=1,1) into time record = 0000013
      WRT_RST   - wrote re-start fields (Index=1,1) into time record = 0000002

 Elapsed CPU time (seconds):

 Node   #  0 CPU:     166.862
 Total:               166.862

 Nonlinear model elapsed time profile:

  Allocation and array initialization ..............         0.016  ( 0.0096 %)
  Ocean state initialization .......................         0.004  ( 0.0024 %)
  Processing of input data .........................         0.148  ( 0.0887 %)
  Computation of vertical boundary conditions ......         0.184  ( 0.1103 %)
  Computation of global information integrals ......         1.144  ( 0.6856 %)
  Writing of output data ...........................         0.408  ( 0.2445 %)
  Model 2D kernel ..................................        51.243  (30.7099 %)
  Tidal forcing ....................................         0.536  ( 0.3212 %)
  2D/3D coupling, vertical metrics .................         1.116  ( 0.6689 %)
  Omega vertical velocity ..........................         0.776  ( 0.4651 %)
  Equation of state for seawater ...................         0.644  ( 0.3860 %)
  Sediment tranport module, source/sink terms ......         5.260  ( 3.1525 %)
  GLS vertical mixing parameterization .............        36.430  (21.8325 %)
  3D equations right-side terms ....................        21.321  (12.7778 %)
  3D equations predictor step ......................         2.276  ( 1.3641 %)
  Pressure gradient ................................         2.060  ( 1.2346 %)
  Corrector time-step for 3D momentum ..............         3.852  ( 2.3086 %)
  Corrector time-step for tracers ..................        37.998  (22.7723 %)
                                              Total:       165.418   99.1346

 Nonlinear model message Passage profile:

  Message Passage: 2D halo exchanges ...............         0.336  ( 0.2014 %)
  Message Passage: 3D halo exchanges ...............         0.072  ( 0.0432 %)
  Message Passage: 4D halo exchanges ...............         0.016  ( 0.0096 %)
  Message Passage: data broadcast ..................         0.008  ( 0.0048 %)
  Message Passage: data reduction ..................         0.080  ( 0.0479 %)
  Message Passage: data gathering ..................         0.144  ( 0.0863 %)
  Message Passage: boundary data gathering .........         0.044  ( 0.0264 %)
  Message Passage: point data gathering ............         0.004  ( 0.0024 %)
  Message Passage: multi-model coupling ............         0.208  ( 0.1247 %)
                                              Total:         0.912    0.5466

 All percentages are with respect to total time =          166.862

 ROMS/TOMS - Output NetCDF summary for Grid 01:
             number of time records written in HISTORY file = 00000013
             number of time records written in RESTART file = 00000002
             number of time records written in STATION file = 00000049

 Analytical header files used:

     ROMS/Functionals/ana_btflux.h
     ROMS/Functionals/ana_fsobc.h
     ROMS/Functionals/ana_m2obc.h
     ROMS/Functionals/ana_nudgcoef.h
     ROMS/Functionals/ana_smflux.h
     ROMS/Functionals/ana_stflux.h

 ROMS/TOMS: DONE... Monday - November 7, 2011 -  1:56:08 PM
