
 Model Input Parameters:  ROMS/TOMS version 3.5  
                          Wednesday - June 29, 2011 - 12:48:26 PM
 -----------------------------------------------------------------------------

 Shore Face Planar Beach Test Case

 Operating system : CYGWIN
 CPU/hardware     : i686
 Compiler system  : gfortran
 Compiler command : /usr/local/bin/mpif90
 Compiler flags   : -frepack-arrays -O3 -ffree-form -ffree-line-length-none -ffree-form -ffree-line-length-none -ffree-form -ffree-line-length-none

 Input Script  : ocean_shoreface.in

 SVN Root URL  : https:://myroms.org/svn/src
 SVN Revision  : exported

 Local Root    : /home/hadfield/ROMS/roms-local
 Header Dir    : /home/hadfield/ROMS/roms-test-local/shoreface
 Header file   : shoreface.h
 Analytical Dir: /home/hadfield/ROMS/roms-test-local/shoreface

 Resolution, Grid 01: 0059x0007x020,  Parallel Nodes:   2,  Tiling: 002x001


 Physical Parameters, Grid: 01
 =============================

       4320  ntimes          Number of timesteps for 3-D equations.
      5.000  dt              Timestep size (s) for 3-D equations.
         20  ndtfast         Number of timesteps for 2-D equations between
                               each 3D timestep.
          1  ERstr           Starting ensemble/perturbation run number.
          1  ERend           Ending ensemble/perturbation run number.
          0  nrrec           Number of restart records to read from disk.
          T  LcycleRST       Switch to recycle time-records in restart file.
        720  nRST            Number of timesteps between the writing of data
                               into restart fields.
          1  ninfo           Number of timesteps between print of information
                               to standard output.
          1  nSTA            Number of timesteps between the writing of data
                               the stations file.
          T  ldefout         Switch to create a new output NetCDF file(s).
        360  nHIS            Number of timesteps between the writing fields
                               into history file.
          1  ntsAVG          Starting timestep for the accumulation of output
                               time-averaged data.
        720  nAVG            Number of timesteps between the writing of
                               time-averaged data into averages file.
 0.0000E+00  nl_visc2        NLM Horizontal, harmonic mixing coefficient
                               (m2/s) for momentum.
 5.0000E-06  Akt_bak(01)     Background vertical mixing coefficient (m2/s)
                               for tracer 01: temp
 5.0000E-06  Akt_bak(02)     Background vertical mixing coefficient (m2/s)
                               for tracer 02: salt
 5.0000E-05  Akv_bak         Background vertical mixing coefficient (m2/s)
                               for momentum.
 5.0000E-06  Akk_bak         Background vertical mixing coefficient (m2/s)
                               for turbulent energy.
 5.0000E-06  Akp_bak         Background vertical mixing coefficient (m2/s)
                               for turbulent generic statistical field.
 3.0000E-04  rdrg            Linear bottom drag coefficient (m/s).
 1.5000E-03  rdrg2           Quadratic bottom drag coefficient.
 1.5000E-02  Zob             Bottom roughness (m).
 1.0000E-01  Dcrit           Minimum depth for wetting and drying (m).
          1  Vtransform      S-coordinate transformation equation.
          1  Vstretching     S-coordinate stretching function.
 0.0000E+00  theta_s         S-coordinate surface control parameter.
 0.0000E+00  theta_b         S-coordinate bottom  control parameter.
      0.000  Tcline          S-coordinate surface/bottom layer width (m) used
                               in vertical coordinate stretching.
   1025.000  rho0            Mean density (kg/m3) for Boussinesq approximation.
      0.000  dstart          Time-stamp assigned to model initialization (days).
       0.00  time_ref        Reference time for units attribute (yyyymmdd.dd)
 0.0000E+00  Tnudg(01)       Nudging/relaxation time scale (days)
                               for tracer 01: temp
 0.0000E+00  Tnudg(02)       Nudging/relaxation time scale (days)
                               for tracer 02: salt
 0.0000E+00  Znudg           Nudging/relaxation time scale (days)
                               for free-surface.
 0.0000E+00  M2nudg          Nudging/relaxation time scale (days)
                               for 2D momentum.
 0.0000E+00  M3nudg          Nudging/relaxation time scale (days)
                               for 3D momentum.
 0.0000E+00  obcfac          Factor between passive and active
                               open boundary conditions.
     10.000  T0              Background potential temperature (C) constant.
     30.000  S0              Background salinity (PSU) constant.
   1027.000  R0              Background density (kg/m3) used in linear Equation
                               of State.
 1.7000E-04  Tcoef           Thermal expansion coefficient (1/Celsius).
 7.6000E-04  Scoef           Saline contraction coefficient (1/PSU).
      1.000  gamma2          Slipperiness variable: free-slip (1.0) or 
                                                    no-slip (-1.0).
          T  Hout(idFsur)    Write out free-surface.
          T  Hout(idUbar)    Write out 2D U-momentum component.
          T  Hout(idVbar)    Write out 2D V-momentum component.
          T  Hout(idUvel)    Write out 3D U-momentum component.
          T  Hout(idVvel)    Write out 3D V-momentum component.
          T  Hout(idWvel)    Write out W-momentum component.
          T  Hout(idOvel)    Write out omega vertical velocity.
          T  Hout(idTvar)    Write out tracer 01: temp
          T  Hout(idTvar)    Write out tracer 02: salt
          T  Hout(idUbms)    Write out bottom U-momentum stress.
          T  Hout(idVbms)    Write out bottom V-momentum stress.
          T  Hout(idW2xx)    Write out 2D radiation stress, Sxx.
          T  Hout(idW2xy)    Write out 2D radiation stress, Sxy.
          T  Hout(idW2yy)    Write out 2D radiation stress, Syy.
          T  Hout(idU2rs)    Write out total 2D u-radiation stress.
          T  Hout(idV2rs)    Write out total 2D v-radiation stress.
          T  Hout(idU2Sd)    Write out 2D u-momentum stokes velocity.
          T  Hout(idV2Sd)    Write out 2D v-momentum stokes velocity.
          T  Hout(idW3xx)    Write out 3D radiation stress, Sxx.
          T  Hout(idW3xy)    Write out 3D radiation stress, Sxy.
          T  Hout(idW3yy)    Write out 3D radiation stress, Syy.
          T  Hout(idW3zx)    Write out 3D radiation stress, Szx.
          T  Hout(idW3zy)    Write out 3D radiation stress, Szy.
          T  Hout(idU3rs)    Write out total 3D u-radiation stress.
          T  Hout(idV3rs)    Write out total 3D v-radiation stress.
          T  Hout(idU3Sd)    Write out 3D u-momentum stokes velocity.
          T  Hout(idV3Sd)    Write out 3D v-momentum stokes velocity.
          T  Hout(idWamp)    Write out wave height.
          T  Hout(idWlen)    Write out wavelength.
          T  Hout(idWdir)    Write out wave direction.
          T  Hout(idBott)    Write out bottom property 01: grain_diameter
          T  Hout(idBott)    Write out bottom property 02: grain_density
          T  Hout(idBott)    Write out bottom property 03: settling_vel
          T  Hout(idBott)    Write out bottom property 04: erosion_stress
          T  Hout(idBott)    Write out bottom property 05: ripple_length
          T  Hout(idBott)    Write out bottom property 06: ripple_height
          T  Hout(idBott)    Write out bottom property 07: bed_wave_amp
          T  Hout(idBott)    Write out bottom property 08: Zo_def
          T  Hout(idBott)    Write out bottom property 09: Zo_app
          T  Hout(idBott)    Write out bottom property 15: active_layer_thickness
          T  Hout(idVvis)    Write out vertical viscosity: AKv.
          T  Hout(idMtke)    Write out turbulent kinetic energy.
          T  Hout(idMtls)    Write out turbulent generic length-scale.

          T  Aout(idFsur)    Write out averaged free-surface.
          T  Aout(idUbar)    Write out averaged 2D U-momentum component.
          T  Aout(idVbar)    Write out averaged 2D V-momentum component.
          T  Aout(idUvel)    Write out averaged 3D U-momentum component.
          T  Aout(idVvel)    Write out averaged 3D V-momentum component.
          T  Aout(idWvel)    Write out averaged W-momentum component.
          T  Aout(idOvel)    Write out averaged omega vertical velocity.
          T  Aout(idTvar)    Write out averaged tracer 01: temp
          T  Aout(idTvar)    Write out averaged tracer 02: salt

 Output/Input Files:

             Output Restart File:  ocean_rst.nc
             Output History File:  ocean_his.nc
            Output Averages File:  ocean_avg.nc
            Output Stations File:  ocean_sta.nc
           Input Forcing File 01:  Data/swan_shoreface_angle_forc.nc
          Station positions File:  stations.in

 Tile partition information for Grid 01:  0059x0007x0020  tiling: 002x001

     tile     Istr     Iend     Jstr     Jend     Npts

        0        1       30        1        7     4200
        1       31       59        1        7     4060

 Tile minimum and maximum fractional grid coordinates:
   (interior points only)

     tile     Xmin     Xmax     Ymin     Ymax     grid

        0     0.50    30.50     0.50     7.50  RHO-points
        1    30.50    59.50     0.50     7.50  RHO-points

        0     1.00    30.50     0.50     7.50    U-points
        1    30.50    59.00     0.50     7.50    U-points

        0     0.50    30.50     1.00     7.00    V-points
        1    30.50    59.50     1.00     7.00    V-points

 Maximum halo size in XI and ETA directions:

               HaloSizeI(1) =     168
               HaloSizeJ(1) =      88
                TileSide(1) =      36
                TileSize(1) =     576



 Sediment Parameters, Grid: 01
 =============================


 Size     Sd50        Csed        Srho        Wsed        Erate       poros
 Class    (mm)       (kg/m3)     (kg/m3)     (mm/s)     (kg/m2/s)    (nondim)

   1    1.0000E+00  0.0000E+00  2.6500E+03  1.0000E+00  1.0000E-05  5.0000E-01

         tau_ce      tau_cd      nl_tnu2     nl_tnu4     Akt_bak      Tnudg
         (N/m2)      (N/m2)      (m2/s)      (m4/s)       (m2/s)      (day)

   1    7.0000E-02  2.0000E-02  0.0000E+00  0.0000E+00  5.0000E-06  0.0000E+00

         morph_fac
         (nondim)

   1    1.0000E+00

 New bed layer formed when deposition exceeds 0.10000E-01 (m).
 Two first layers are combined when 2nd layer smaller than 0.21220-313 (m).
 Rate coefficient for bed load transport = 0.50000E-01

          T  Hout(idTvar)   Write out sediment01: sand_01
          T  Hout(idfrac)   Write out bed fraction, sediment 01: sandfrac_01
          T  Hout(idfrac)   Write out mass, sediment 01: sandmass_01
          T  Hout(idUbld)   Write out U-bedload, sediment 01: bedload_Usand_01
          T  Hout(idVbld)   Write out V-bedload, sediment 01: bedload_Vsand_01
          T  Hout(idSbed)   Write out BED property 01: bed_thickness
          T  Hout(idSbed)   Write out BED property 02: bed_age
          T  Hout(idSbed)   Write out BED property 03: bed_porosity

          T  Aout(idTvar)   Write out averaged sediment01: sand_01
          T  Aout(idUbld)   Write out U-bedload, sediment 01: bedload_Usand_01
          T  Aout(idVbld)   Write out V-bedload, sediment 01: bedload_Vsand_01


 Stations Parameters, Grid: 01
 =============================

          1  Nstation        Number of stations to write out into stations file.
          T  Sout(idFsur)    Write out free-surface.
          T  Sout(idUbar)    Write out 2D U-momentum component.
          T  Sout(idVbar)    Write out 2D V-momentum component.
          T  Sout(idUvel)    Write out 3D U-momentum component.
          T  Sout(idVvel)    Write out 3D V-momentum component.
          T  Sout(idWvel)    Write out W-momentum component.
          T  Sout(idOvel)    Write out omega vertical velocity.
          T  Sout(idTvar)    Write out tracer 01: temp
          T  Sout(idTvar)    Write out tracer 02: salt
          T  Sout(idTvar)    Write out tracer 03: sand_01
          T  Sout(idUsms)    Write out surface U-momentum stress.
          T  Sout(idVsms)    Write out surface V-momentum stress.
          T  Sout(idUbms)    Write out bottom U-momentum stress.
          T  Sout(idVbms)    Write out bottom V-momentum stress.
          T  Sout(idW2xx)    Write out 2D radiation stress, Sxx.
          T  Sout(idW2xy)    Write out 2D radiation stress, Sxy.
          T  Sout(idW2yy)    Write out 2D radiation stress, Syy.
          T  Sout(idU2rs)    Write out total 2D u-radiation stress.
          T  Sout(idV2rs)    Write out total 2D v-radiation stress.
          T  Sout(idU2Sd)    Write out 2D u-momentum stokes velocity.
          T  Sout(idV2Sd)    Write out 2D v-momentum stokes velocity.
          T  Sout(idW3xx)    Write out 3D horizonrtal radiation stress, Sxx.
          T  Sout(idW3xy)    Write out 3D horizonrtal radiation stress, Sxy.
          T  Sout(idW3yy)    Write out 3D horizonrtal radiation stress, Syy.
          T  Sout(idW3zx)    Write out 3D vertical radiation stress, Spx.
          T  Sout(idW3zy)    Write out 3D vertical radiation stress, Spy.
          T  Sout(idU3rs)    Write out total 3D u-radiation stress.
          T  Sout(idV3rs)    Write out total 3D v-radiation stress.
          T  Sout(idU3Sd)    Write out 3D u-momentum stokes velocity.
          T  Sout(idV3Sd)    Write out 3D v-momentum stokes velocity.
          T  Sout(idWamp)    Write out wave height.
          T  Sout(idWlen)    Write out wave length.
          T  Sout(idWdir)    Write out wave direction.
          T  Sout(idBott)    Write out bottom property 03: settling_vel
          T  Sout(idBott)    Write out bottom property 04: erosion_stress
          T  Sout(idBott)    Write out bottom property 05: ripple_length
          T  Sout(idBott)    Write out bottom property 06: ripple_height
          T  Sout(idBott)    Write out bottom property 07: bed_wave_amp
          T  Sout(idBott)    Write out bottom property 08: Zo_def
          T  Sout(idBott)    Write out bottom property 09: Zo_app
          T  Sout(idBott)    Write out bottom property 12: Zo_bedform
          T  Sout(idBott)    Write out bottom property 13: Zo_bedload
          T  Sout(idBott)    Write out bottom property 14: Zo_wbl
          T  Sout(idBott)    Write out bottom property 15: active_layer_thickness
          T  Sout(idBott)    Write out bottom property 16: saltation
          T  Sout(idBott)    Write out bottom property 17: ero_flux
          T  Sout(idBott)    Write out bottom property 18: dep_net
          T  Sout(idDano)    Write out density anomaly.
          T  Sout(idVvis)    Write out vertical viscosity coefficient.
          T  Sout(idTdif)    Write out vertical T-diffusion coefficient.
          T  Sout(idSdif)    Write out vertical S-diffusion coefficient.

             Flag and positions for station 0001:  0    25.0000    3.0000

 Activated C-preprocessing Options:

 SHOREFACE           Shore Face Planar Beach Test Case
 ANA_BPFLUX          Analytical bottom passive tracers fluxes.
 ANA_BSFLUX          Analytical kinematic bottom salinity flux.
 ANA_BTFLUX          Analytical kinematic bottom temperature flux.
 ANA_FSOBC           Analytical free-surface boundary conditions.
 ANA_GRID            Analytical grid set-up.
 ANA_INITIAL         Analytical initial conditions.
 ANA_M2OBC           Analytical 2D momentum boundary conditions.
 ANA_MASK            Analytical Land/Sea Masking.
 ANA_SEDIMENT        Analytical sediment initial conditions.
 ANA_SMFLUX          Analytical kinematic surface momentum flux.
 ANA_SPFLUX          Analytical surface passive tracer fluxes.
 ANA_SSFLUX          Analytical kinematic surface salinity flux.
 ANA_STFLUX          Analytical kinematic surface temperature flux.
 ASSUMED_SHAPE       Using assumed-shape arrays.
 AVERAGES            Writing out time-averaged nonlinear model fields.
 BEDLOAD_MPM         Activate bed load sediment transport Meyer-Peter-Mueller.
 DJ_GRADPS           Parabolic Splines density Jacobian (Shchepetkin, 2002).
 DOUBLE_PRECISION    Double precision arithmetic.
 EASTERN_WALL        Wall boundary at Eastern edge.
 MASKING             Land/Sea masking.
 MIX_S_UV            Mixing of momentum along constant S-surfaces.
 MPI                 MPI distributed-memory configuration.
 MY25_MIXING         Mellor/Yamada Level-2.5 mixing closure.
 NEARSHORE_MELLOR05  Nearshore Radiation Stress Terms (Mellor 2005).
 NONLINEAR           Nonlinear Model.
 !NONLIN_EOS         Linear Equation of State for seawater.
 NS_PERIODIC         North-South periodic boundaries.
 POWER_LAW           Power-law shape time-averaging barotropic filter.
 PROFILE             Time profiling activated .
 K_GSCHEME           Third-order upstream advection of TKE fields.
 !RST_SINGLE         Double precision fields in restart NetCDF file.
 SALINITY            Using salinity.
 SEDIMENT            Cohesive and noncohesive sediments.
 SUSPLOAD            Activate suspended sediment transport.
 SOLVE3D             Solving 3D Primitive Equations.
 SPLINES             Conservative parabolic spline reconstruction.
 STATIONS            Writing out station data.
 THREE_GHOST         Using three Ghost Points in halo regions.
 TS_MPDATA           Recursive flux corrected MPDATA 3D advection of tracers.
 UV_ADV              Advection of momentum.
 UV_U3HADVECTION     Third-order upstream horizontal advection of 3D momentum.
 UV_C4VADVECTION     Fourth-order centered vertical advection of momentum.
 UV_QDRAG            Quadratic bottom stress.
 UV_VIS2             Harmonic mixing of momentum.
 VAR_RHO_2D          Variable density barotropic mode.
 WEST_FSCHAPMAN      Western edge, free-surface, Chapman condition.
 WEST_M2FLATHER      Western edge, 2D momentum, Flather condition.
 WEST_M3GRADIENT     Western edge, 3D momentum, gradient condition.
 WET_DRY             Wetting and drying activated.

 Process Information:

 Node #  0 (pid=       0) is active.
 Node #  1 (pid=       0) is active.

 INITIAL: Configuring and initializing forward nonlinear model ...


 Vertical S-coordinate System: 

 level   S-coord     Cs-curve   Z   at hmin       at hc    half way     at hmax

    20   0.0000000   0.0000000        0.000       0.000       0.000       0.000
    19  -0.0500000  -0.0500000        0.150      -0.000      -0.219      -0.588
    18  -0.1000000  -0.1000000        0.300      -0.000      -0.438      -1.175
    17  -0.1500000  -0.1500000        0.450      -0.000      -0.656      -1.763
    16  -0.2000000  -0.2000000        0.600      -0.000      -0.875      -2.350
    15  -0.2500000  -0.2500000        0.750      -0.000      -1.094      -2.938
    14  -0.3000000  -0.3000000        0.900      -0.000      -1.313      -3.525
    13  -0.3500000  -0.3500000        1.050      -0.000      -1.531      -4.113
    12  -0.4000000  -0.4000000        1.200      -0.000      -1.750      -4.700
    11  -0.4500000  -0.4500000        1.350      -0.000      -1.969      -5.288
    10  -0.5000000  -0.5000000        1.500      -0.000      -2.188      -5.875
     9  -0.5500000  -0.5500000        1.650      -0.000      -2.406      -6.463
     8  -0.6000000  -0.6000000        1.800      -0.000      -2.625      -7.050
     7  -0.6500000  -0.6500000        1.950      -0.000      -2.844      -7.638
     6  -0.7000000  -0.7000000        2.100      -0.000      -3.063      -8.225
     5  -0.7500000  -0.7500000        2.250      -0.000      -3.281      -8.813
     4  -0.8000000  -0.8000000        2.400      -0.000      -3.500      -9.400
     3  -0.8500000  -0.8500000        2.550      -0.000      -3.719      -9.988
     2  -0.9000000  -0.9000000        2.700      -0.000      -3.938     -10.575
     1  -0.9500000  -0.9500000        2.850      -0.000      -4.156     -11.163
     0  -1.0000000  -1.0000000        3.000      -0.000      -4.375     -11.750

 Time Splitting Weights: ndtfast =  20    nfast =  29

    Primary            Secondary            Accumulated to Current Step

  1-0.0009651193358779 0.0500000000000000-0.0009651193358779 0.0500000000000000
  2-0.0013488780126037 0.0500482559667939-0.0023139973484816 0.1000482559667939
  3-0.0011514592651645 0.0501156998674241-0.0034654566136460 0.1501639558342179
  4-0.0003735756740661 0.0501732728306823-0.0038390322877122 0.2003372286649002
  5 0.0009829200513762 0.0501919516143856-0.0028561122363360 0.2505291802792858
  6 0.0029141799764308 0.0501428056118168 0.0000580677400948 0.3006719858911026
  7 0.0054132615310267 0.0499970966129952 0.0054713292711215 0.3506690825040978
  8 0.0084687837865132 0.0497264335364439 0.0139401130576347 0.4003955160405417
  9 0.0120633394191050 0.0493029943471183 0.0260034524767397 0.4496985103876600
 10 0.0161716623600090 0.0486998273761630 0.0421751148367486 0.4983983377638230
 11 0.0207585511322367 0.0478912442581626 0.0629336659689853 0.5462895820219856
 12 0.0257765478740990 0.0468533167015507 0.0887102138430843 0.5931428987235363
 13 0.0311633730493853 0.0455644893078458 0.1198735868924696 0.6387073880313821
 14 0.0368391158442262 0.0440063206553765 0.1567127027366958 0.6827137086867585
 15 0.0427031802506397 0.0421643648631652 0.1994158829873354 0.7248780735499237
 16 0.0486309868367616 0.0400292058506332 0.2480468698240970 0.7649072794005569
 17 0.0544704302037591 0.0375976565087951 0.3025173000278562 0.8025049359093520
 18 0.0600380921294285 0.0348741349986072 0.3625553921572847 0.8373790709079592
 19 0.0651152103984763 0.0318722303921358 0.4276706025557610 0.8692513013000949
 20 0.0694434033194839 0.0286164698722119 0.4971140058752449 0.8978677711723068
 21 0.0727201499285569 0.0251442997062377 0.5698341558038018 0.9230120708785445
 22 0.0745940258796570 0.0215082922098099 0.6444281816834588 0.9445203630883544
 23 0.0746596950216180 0.0177785909158270 0.7190878767050768 0.9622989540041814
 24 0.0724526566618460 0.0140456061647461 0.7915405333669228 0.9763445601689276
 25 0.0674437485167025 0.0104229733316538 0.8589842818836253 0.9867675335005814
 26 0.0590334053485720 0.0070507859058187 0.9180176872321973 0.9938183194064002
 27 0.0465456732896125 0.0040991156383901 0.9645633605218099 0.9979174350447904
 28 0.0292219798521905 0.0017718319739095 0.9937853403740005 0.9996892670186999
 29 0.0062146596259994 0.0003107329813000 0.9999999999999999 0.9999999999999999

 ndtfast, nfast =   20  29   nfast/ndtfast =  1.45000

 Centers of gravity and integrals (values must be 1, 1, approx 1/2, 1, 1):

    1.000000000000 1.060707743385 0.530353871693 1.000000000000 1.000000000000

 Power filter parameters, Fgamma, gamma =  0.28400   0.14200

 Minimum X-grid spacing, DXmin =  2.00000000E-02 km
 Maximum X-grid spacing, DXmax =  2.00000000E-02 km
 Minimum Y-grid spacing, DYmin =  2.00000000E-02 km
 Maximum Y-grid spacing, DYmax =  2.00000000E-02 km
 Minimum Z-grid spacing, DZmin = -1.50000000E-01 m
 Maximum Z-grid spacing, DZmax =  5.87500000E-01 m

 Minimum barotropic Courant Number =  1.23806805E-02
 Maximum barotropic Courant Number =  1.89792238E-01
 Maximum Coriolis   Courant Number =  0.00000000E+00

    GET_2DFLD   - wind-induced wave direction,               t =     0 00:00:00
                   (Rec=0001, Index=1, File: swan_shoreface_angle_forc.nc)
                   (Tmin=          0.0000 Tmax=          0.0000)
                   (Min =  3.14159265E+00 Max =  4.73490388E+00)
    GET_2DFLD   - wind-induced significant wave height,      t =     0 00:00:00
                   (Rec=0001, Index=1, File: swan_shoreface_angle_forc.nc)
                   (Tmin=          0.0000 Tmax=          0.0000)
                   (Min =  0.00000000E+00 Max =  2.20400000E+00)
    GET_2DFLD   - wind-induced mean wavelength,              t =     0 00:00:00
                   (Rec=0001, Index=1, File: swan_shoreface_angle_forc.nc)
                   (Tmin=          0.0000 Tmax=          0.0000)
                   (Min =  1.00000000E+01 Max =  7.05299988E+01)

 Maximum grid stiffness ratios:  rx0 =   1.685714E+00 (Beckmann and Haidvogel)
                                 rx1 =   6.574286E+01 (Haney)


 Initial basin volumes: TotVolume =  7.2275000000E+05 m3
                        MinVolume = -5.5083333333E+01 m3
                        MaxVolume =  2.3008333333E+02 m3
                          Max/Min = -4.1770045386E+00


 NL ROMS/TOMS: started time-stepping: (Grid: 01 TimeSteps: 00000001 - 00004320)


     STEP   Day HH:MM:SS  KINETIC_ENRG  POTEN_ENRG   TOTAL_ENRG   NET_VOLUME
            C => (i,j,k)       Cu           Cv           Cw        Max Speed

        0     0 00:00:00  0.000000E+00 3.856303E+01 3.856303E+01 7.732200E+05
               (00,0,00)  0.000000E+00 0.000000E+00 0.000000E+00 0.000000E+00
      DEF_HIS   - creating history file: ocean_his.nc
      WRT_HIS   - wrote history  fields (Index=1,1) into time record = 0000001
      DEF_AVG   - creating average file: ocean_avg.nc
      DEF_STATION - creating stations file: ocean_sta.nc
        1     0 00:00:05  5.793830E-05 3.856223E+01 3.856229E+01 7.732190E+05
               (46,1,20)  1.928392E-02 1.013812E-03 0.000000E+00 7.809612E-02
        2     0 00:00:10  1.647683E-03 3.855965E+01 3.856130E+01 7.733708E+05
               (47,1,20)  1.032942E-02 8.453312E-04 6.367738E-01 1.408754E-01
        3     0 00:00:15  1.383762E-03 3.856424E+01 3.856562E+01 7.734604E+05
               (47,1,20)  1.422998E-03 2.112832E-03 5.874011E-01 9.755809E-02
        4     0 00:00:20  1.312780E-03 3.856629E+01 3.856761E+01 7.735429E+05
               (46,1,20)  1.498491E-02 2.112339E-03 2.258144E-01 9.710328E-02
        5     0 00:00:25  1.272580E-03 3.856608E+01 3.856735E+01 7.736221E+05
               (46,1,20)  2.425583E-02 3.122194E-03 3.526413E-01 1.233541E-01
        6     0 00:00:30  1.238077E-03 3.856347E+01 3.856470E+01 7.736956E+05
               (46,1,20)  2.999866E-02 4.094027E-03 4.666171E-01 1.574956E-01
        7     0 00:00:35  1.204407E-03 3.855853E+01 3.855974E+01 7.737643E+05
               (46,1,20)  3.450540E-02 5.037835E-03 5.764770E-01 1.827903E-01
        8     0 00:00:40  1.105252E-03 3.855120E+01 3.855231E+01 7.738268E+05
               (48,1,20)  1.885739E-02 1.335616E-03 2.323900E+00 2.002786E-01
        9     0 00:00:45  9.664838E-04 3.854141E+01 3.854237E+01 7.738832E+05
               (48,1,20)  5.900955E-03 1.609596E-03 1.579932E+00 2.051871E-01
       10     0 00:00:50  8.045132E-04 3.852897E+01 3.852977E+01 7.739326E+05
               (47,1,20)  2.325037E-02 8.866979E-03 7.675334E-01 1.961384E-01
       11     0 00:00:55  6.442964E-04 3.851381E+01 3.851445E+01 7.739751E+05
               (48,1,20)  2.346382E-02 2.720296E-03 5.991301E-01 1.744982E-01
       12     0 00:01:00  4.974096E-04 3.849587E+01 3.849637E+01 7.740111E+05
               (48,1,20)  3.260167E-02 3.508662E-03 1.442076E+00 2.231346E-01
       13     0 00:01:05  3.728803E-04 3.847536E+01 3.847573E+01 7.740432E+05
               (48,1,20)  3.548276E-02 4.306993E-03 1.878161E+00 2.494781E-01
       14     0 00:01:10  2.698526E-04 3.845267E+01 3.845294E+01 7.740757E+05
               (48,1,20)  3.158136E-02 5.048564E-03 1.947361E+00 2.387314E-01
       15     0 00:01:15  1.945453E-04 3.842852E+01 3.842871E+01 7.741154E+05
               (48,1,20)  2.289241E-02 5.660524E-03 1.677874E+00 1.968520E-01
       16     0 00:01:20  1.563664E-04 3.840374E+01 3.840390E+01 7.741697E+05
               (48,1,20)  1.139354E-02 6.125687E-03 1.182440E+00 1.342174E-01
       17     0 00:01:25  1.678331E-04 3.837924E+01 3.837941E+01 7.742463E+05
               (47,1,20)  8.404760E-03 1.387731E-02 5.429996E-01 8.702068E-02
       18     0 00:01:30  2.301275E-04 3.835585E+01 3.835608E+01 7.743510E+05
               (47,1,20)  1.259373E-02 1.439619E-02 3.816811E-01 1.122036E-01
       19     0 00:01:35  3.306399E-04 3.833427E+01 3.833460E+01 7.744876E+05
               (48,1,20)  1.695390E-02 6.631179E-03 6.852372E-01 1.694741E-01
       20     0 00:01:40  4.535111E-04 3.831504E+01 3.831550E+01 7.746579E+05
               (48,1,20)  2.135617E-02 6.617123E-03 1.117132E+00 2.085797E-01
       21     0 00:01:45  5.914133E-04 3.829854E+01 3.829913E+01 7.748619E+05
               (48,1,20)  2.375177E-02 6.561583E-03 1.398139E+00 2.295676E-01
       22     0 00:01:50  7.501031E-04 3.828499E+01 3.828574E+01 7.750986E+05
               (48,1,20)  2.468058E-02 6.486218E-03 1.561115E+00 2.403480E-01
       23     0 00:01:55  9.246421E-04 3.827459E+01 3.827551E+01 7.753660E+05
               (48,1,20)  2.464612E-02 6.406500E-03 1.632497E+00 2.470565E-01
       24     0 00:02:00  1.090978E-03 3.826750E+01 3.826859E+01 7.756617E+05
               (48,1,20)  2.387498E-02 6.331799E-03 1.641196E+00 2.483087E-01
       25     0 00:02:05  1.227906E-03 3.826386E+01 3.826509E+01 7.759830E+05
               (48,1,20)  2.286789E-02 6.271347E-03 1.599184E+00 2.443234E-01
       26     0 00:02:10  1.347448E-03 3.826369E+01 3.826504E+01 7.763269E+05
               (48,1,20)  2.178819E-02 6.226187E-03 1.538953E+00 2.319285E-01
       27     0 00:02:15  1.471057E-03 3.826699E+01 3.826846E+01 7.766905E+05
               (48,1,20)  2.091833E-02 6.198131E-03 1.471882E+00 2.134226E-01
       28     0 00:02:20  1.604418E-03 3.827377E+01 3.827537E+01 7.770707E+05
               (48,1,20)  2.008836E-02 6.184492E-03 1.417218E+00 2.067047E-01
       29     0 00:02:25  1.744636E-03 3.828400E+01 3.828574E+01 7.774642E+05
               (48,1,20)  1.916757E-02 6.187686E-03 1.364013E+00 2.119092E-01
       30     0 00:02:30  1.890837E-03 3.829760E+01 3.829949E+01 7.778672E+05
               (48,1,20)  1.757945E-02 6.212729E-03 1.302537E+00 2.183058E-01
       31     0 00:02:35  2.039324E-03 3.831440E+01 3.831644E+01 7.782752E+05
               (48,1,20)  1.470436E-02 6.278466E-03 1.192804E+00 2.232649E-01
       32     0 00:02:40  2.188291E-03 3.833401E+01 3.833620E+01 7.786822E+05
               (48,1,20)  9.876695E-03 6.415154E-03 9.932253E-01 2.260845E-01
       33     0 00:02:45  2.335839E-03 3.835586E+01 3.835819E+01 7.790804E+05
               (48,1,20)  3.290771E-03 6.702472E-03 6.663596E-01 2.269511E-01
       34     0 00:02:50  2.481609E-03 3.837909E+01 3.838157E+01 7.794603E+05
               (46,1,20)  5.533070E-03 2.368266E-02 3.469601E-01 2.258472E-01
       35     0 00:02:55  2.624231E-03 3.840269E+01 3.840532E+01 7.798113E+05
               (46,1,20)  7.727931E-03 2.434852E-02 3.588486E-01 2.230068E-01
       36     0 00:03:00  2.761053E-03 3.842558E+01 3.842834E+01 7.801235E+05
               (47,1,20)  6.590139E-04 2.312694E-02 4.239690E-01 2.199411E-01
       37     0 00:03:05  2.891420E-03 3.844674E+01 3.844963E+01 7.803884E+05
               (47,1,20)  5.219422E-03 2.379528E-02 4.990036E-01 2.174795E-01
       38     0 00:03:10  3.018239E-03 3.846539E+01 3.846841E+01 7.806012E+05
               (47,1,20)  1.244499E-02 2.441886E-02 3.209204E-01 2.151640E-01
       39     0 00:03:15  3.140648E-03 3.848123E+01 3.848438E+01 7.807624E+05
               (48,1,20)  1.589682E-02 9.169216E-03 5.694572E-01 2.130450E-01
       40     0 00:03:20  3.252325E-03 3.849464E+01 3.849789E+01 7.808790E+05
               (48,1,20)  1.945905E-02 9.103689E-03 1.025389E+00 2.112728E-01
       41     0 00:03:25  3.354343E-03 3.850657E+01 3.850992E+01 7.809638E+05
               (48,1,20)  1.933668E-02 9.014546E-03 1.264766E+00 2.101265E-01
       42     0 00:03:30  3.449299E-03 3.851825E+01 3.852169E+01 7.810310E+05
               (48,1,20)  1.712741E-02 8.949903E-03 1.260664E+00 2.096797E-01
       43     0 00:03:35  3.539977E-03 3.853056E+01 3.853410E+01 7.810905E+05
               (48,1,20)  1.492830E-02 8.941018E-03 1.117582E+00 2.099247E-01
       44     0 00:03:40  3.626610E-03 3.854349E+01 3.854711E+01 7.811423E+05
               (48,1,20)  1.372685E-02 8.973806E-03 9.736970E-01 2.107219E-01
       45     0 00:03:45  3.708336E-03 3.855591E+01 3.855962E+01 7.811758E+05
               (48,1,20)  1.351910E-02 9.024692E-03 8.955821E-01 2.122158E-01
       46     0 00:03:50  3.779932E-03 3.856589E+01 3.856967E+01 7.811734E+05
               (48,1,20)  1.372904E-02 9.077945E-03 8.825890E-01 2.142645E-01
       47     0 00:03:55  3.834064E-03 3.857137E+01 3.857521E+01 7.811180E+05
               (48,1,20)  1.396845E-02 9.127509E-03 8.975415E-01 2.168176E-01
       48     0 00:04:00  3.863319E-03 3.857127E+01 3.857513E+01 7.810038E+05
               (48,1,20)  1.405849E-02 9.174717E-03 9.142928E-01 2.199952E-01
       49     0 00:04:05  3.869265E-03 3.856613E+01 3.857000E+01 7.808417E+05
               (48,1,20)  1.406416E-02 9.222422E-03 9.211853E-01 2.270326E-01
       50     0 00:04:10  3.863092E-03 3.855794E+01 3.856181E+01 7.806557E+05
               (48,1,20)  1.405495E-02 9.271807E-03 9.223982E-01 2.350068E-01
       51     0 00:04:15  3.859525E-03 3.854898E+01 3.855284E+01 7.804709E+05
               (48,1,20)  1.410825E-02 9.322127E-03 9.226086E-01 2.427029E-01
       52     0 00:04:20  3.866614E-03 3.854079E+01 3.854466E+01 7.803029E+05
               (48,1,20)  1.420991E-02 9.371999E-03 9.269226E-01 2.495056E-01
       53     0 00:04:25  3.885449E-03 3.853398E+01 3.853786E+01 7.801568E+05
               (48,1,20)  1.436474E-02 9.419815E-03 9.345430E-01 2.543480E-01
       54     0 00:04:30  3.912721E-03 3.852857E+01 3.853248E+01 7.800318E+05
               (48,1,20)  1.452734E-02 9.464873E-03 9.456970E-01 2.565664E-01
       55     0 00:04:35  3.945154E-03 3.852449E+01 3.852844E+01 7.799260E+05
               (48,1,20)  1.470453E-02 9.506717E-03 9.574887E-01 2.568337E-01
       56     0 00:04:40  3.979576E-03 3.852171E+01 3.852569E+01 7.798378E+05
               (48,1,20)  1.486389E-02 9.545602E-03 9.702774E-01 2.541852E-01
       57     0 00:04:45  4.014000E-03 3.852018E+01 3.852420E+01 7.797659E+05
               (48,1,20)  1.502516E-02 9.581645E-03 9.819815E-01 2.499584E-01
       58     0 00:04:50  4.046165E-03 3.851984E+01 3.852388E+01 7.797085E+05
               (48,1,20)  1.516047E-02 9.615416E-03 9.938325E-01 2.471873E-01
       59     0 00:04:55  4.075170E-03 3.852052E+01 3.852459E+01 7.796631E+05
               (48,1,20)  1.529293E-02 9.647119E-03 1.004027E+00 2.478853E-01
       60     0 00:05:00  4.100255E-03 3.852204E+01 3.852614E+01 7.796272E+05
               (48,1,20)  1.539370E-02 9.677475E-03 1.014022E+00 2.493585E-01
       61     0 00:05:05  4.122325E-03 3.852422E+01 3.852834E+01 7.795985E+05
               (48,1,20)  1.548641E-02 9.706901E-03 1.021927E+00 2.504747E-01
       62     0 00:05:10  4.141659E-03 3.852689E+01 3.853104E+01 7.795749E+05
               (48,1,20)  1.554037E-02 9.736454E-03 1.029239E+00 2.510041E-01
       63     0 00:05:15  4.159169E-03 3.852993E+01 3.853409E+01 7.795549E+05
               (48,1,20)  1.557650E-02 9.766879E-03 1.033926E+00 2.512129E-01
       64     0 00:05:20  4.174816E-03 3.853319E+01 3.853736E+01 7.795369E+05
               (48,1,20)  1.556144E-02 9.799661E-03 1.037304E+00 2.513452E-01
       65     0 00:05:25  4.188994E-03 3.853650E+01 3.854069E+01 7.795191E+05
               (48,1,20)  1.551139E-02 9.836077E-03 1.037134E+00 2.515157E-01
       66     0 00:05:30  4.201164E-03 3.853965E+01 3.854385E+01 7.794995E+05
               (48,1,20)  1.539415E-02 9.878203E-03 1.034416E+00 2.517279E-01
       67     0 00:05:35  4.211108E-03 3.854232E+01 3.854654E+01 7.794754E+05
               (48,1,20)  1.522514E-02 9.927906E-03 1.026967E+00 2.519878E-01
       68     0 00:05:40  4.217832E-03 3.854416E+01 3.854837E+01 7.794436E+05
               (48,1,20)  1.498529E-02 9.987523E-03 1.015758E+00 2.522973E-01
       69     0 00:05:45  4.220604E-03 3.854471E+01 3.854893E+01 7.794005E+05
               (48,1,20)  1.469835E-02 1.005897E-02 9.995117E-01 2.526489E-01
       70     0 00:05:50  4.218353E-03 3.854359E+01 3.854781E+01 7.793436E+05
               (48,1,20)  1.437113E-02 1.014378E-02 9.798411E-01 2.530124E-01
       71     0 00:05:55  4.211255E-03 3.854064E+01 3.854485E+01 7.792726E+05
               (48,1,20)  1.403869E-02 1.024512E-02 9.572531E-01 2.533870E-01
       72     0 00:06:00  4.201299E-03 3.853618E+01 3.854038E+01 7.791924E+05
               (48,1,20)  1.372860E-02 1.036567E-02 9.341667E-01 2.537977E-01
       73     0 00:06:05  4.193336E-03 3.853116E+01 3.853536E+01 7.791131E+05
               (48,1,20)  1.346763E-02 1.049984E-02 9.125513E-01 2.542801E-01
       74     0 00:06:10  4.192178E-03 3.852672E+01 3.853091E+01 7.790463E+05
               (48,1,20)  1.327169E-02 1.064514E-02 8.942340E-01 2.548398E-01
       75     0 00:06:15  4.199824E-03 3.852349E+01 3.852769E+01 7.789973E+05
               (48,1,20)  1.312429E-02 1.079930E-02 8.803652E-01 2.554735E-01
       76     0 00:06:20  4.214581E-03 3.852130E+01 3.852551E+01 7.789631E+05
               (48,1,20)  1.300412E-02 1.095905E-02 8.698195E-01 2.561750E-01
       77     0 00:06:25  4.233675E-03 3.851951E+01 3.852375E+01 7.789366E+05
               (48,1,20)  1.285988E-02 1.112409E-02 8.611668E-01 2.569500E-01
       78     0 00:06:30  4.255176E-03 3.851762E+01 3.852187E+01 7.789122E+05
               (48,1,20)  1.267478E-02 1.129583E-02 8.509341E-01 2.577966E-01
       79     0 00:06:35  4.278817E-03 3.851549E+01 3.851976E+01 7.788888E+05
               (48,1,20)  1.243077E-02 1.147762E-02 8.379271E-01 2.587162E-01
       80     0 00:06:40  4.305158E-03 3.851325E+01 3.851755E+01 7.788676E+05
               (48,1,20)  1.217644E-02 1.167118E-02 8.209852E-01 2.597091E-01
       81     0 00:06:45  4.334763E-03 3.851105E+01 3.851539E+01 7.788500E+05
               (48,1,20)  1.194707E-02 1.187649E-02 8.033056E-01 2.607809E-01
       82     0 00:06:50  4.367825E-03 3.850896E+01 3.851333E+01 7.788363E+05
               (48,1,20)  1.181506E-02 1.208907E-02 7.873484E-01 2.619356E-01
       83     0 00:06:55  4.404266E-03 3.850695E+01 3.851136E+01 7.788263E+05
               (48,1,20)  1.178588E-02 1.230273E-02 7.779237E-01 2.632803E-01
       84     0 00:07:00  4.444027E-03 3.850501E+01 3.850945E+01 7.788194E+05
               (48,1,20)  1.186836E-02 1.250977E-02 7.754481E-01 2.647166E-01
       85     0 00:07:05  4.487012E-03 3.850312E+01 3.850761E+01 7.788152E+05
               (48,1,20)  1.200488E-02 1.270512E-02 7.805018E-01 2.662412E-01
       86     0 00:07:10  4.533283E-03 3.850129E+01 3.850583E+01 7.788137E+05
               (48,1,20)  1.217080E-02 1.288555E-02 7.892618E-01 2.678483E-01
       87     0 00:07:15  4.582768E-03 3.849954E+01 3.850412E+01 7.788149E+05
               (48,1,20)  1.232256E-02 1.305135E-02 8.000237E-01 2.695226E-01
       88     0 00:07:20  4.635535E-03 3.849788E+01 3.850252E+01 7.788186E+05
               (48,1,20)  1.246799E-02 1.320316E-02 8.099057E-01 2.712556E-01
       89     0 00:07:25  4.691431E-03 3.849633E+01 3.850102E+01 7.788249E+05
               (48,1,20)  1.260022E-02 1.334256E-02 8.193417E-01 2.730305E-01
       90     0 00:07:30  4.750467E-03 3.849491E+01 3.849966E+01 7.788337E+05
               (48,1,20)  1.273274E-02 1.347010E-02 8.279388E-01 2.748458E-01
       91     0 00:07:35  4.812397E-03 3.849364E+01 3.849845E+01 7.788448E+05
               (48,1,20)  1.285455E-02 1.358633E-02 8.365564E-01 2.766956E-01
       92     0 00:07:40  4.877176E-03 3.849252E+01 3.849740E+01 7.788582E+05
               (48,1,20)  1.296169E-02 1.369265E-02 8.445101E-01 2.785857E-01
       93     0 00:07:45  4.944492E-03 3.849157E+01 3.849651E+01 7.788738E+05
               (48,1,20)  1.304293E-02 1.379140E-02 8.514934E-01 2.804964E-01
       94     0 00:07:50  5.014263E-03 3.849079E+01 3.849580E+01 7.788913E+05
               (48,1,20)  1.309817E-02 1.388490E-02 8.567686E-01 2.824126E-01
       95     0 00:07:55  5.086147E-03 3.849020E+01 3.849528E+01 7.789106E+05
               (48,1,20)  1.312944E-02 1.397543E-02 8.602862E-01 2.843240E-01
       96     0 00:08:00  5.160042E-03 3.848979E+01 3.849495E+01 7.789315E+05
               (48,1,20)  1.314163E-02 1.406469E-02 8.621950E-01 2.862552E-01
       97     0 00:08:05  5.235597E-03 3.848957E+01 3.849481E+01 7.789539E+05
               (48,1,20)  1.313812E-02 1.415404E-02 8.628011E-01 2.882229E-01
       98     0 00:08:10  5.312701E-03 3.848954E+01 3.849485E+01 7.789774E+05
               (48,1,20)  1.311857E-02 1.424460E-02 8.623417E-01 2.902266E-01
       99     0 00:08:15  5.391008E-03 3.848969E+01 3.849509E+01 7.790018E+05
               (48,1,20)  1.308213E-02 1.433746E-02 8.607833E-01 2.922216E-01
      100     0 00:08:20  5.470392E-03 3.849002E+01 3.849549E+01 7.790269E+05
               (48,1,20)  1.302783E-02 1.443380E-02 8.580745E-01 2.941607E-01
      101     0 00:08:25  5.550513E-03 3.849051E+01 3.849606E+01 7.790524E+05
               (48,1,20)  1.295838E-02 1.453477E-02 8.541412E-01 2.960067E-01
      102     0 00:08:30  5.631229E-03 3.849115E+01 3.849678E+01 7.790779E+05
               (48,1,20)  1.288312E-02 1.464094E-02 8.491700E-01 2.977634E-01
      103     0 00:08:35  5.712224E-03 3.849191E+01 3.849763E+01 7.791032E+05
               (48,1,20)  1.281500E-02 1.475204E-02 8.437764E-01 2.994557E-01
      104     0 00:08:40  5.793358E-03 3.849278E+01 3.849858E+01 7.791279E+05
               (48,1,20)  1.277341E-02 1.486654E-02 8.388347E-01 3.011130E-01
      105     0 00:08:45  5.874368E-03 3.849374E+01 3.849961E+01 7.791518E+05
               (48,1,20)  1.276938E-02 1.498177E-02 8.356392E-01 3.027452E-01
      106     0 00:08:50  5.955146E-03 3.849474E+01 3.850069E+01 7.791745E+05
               (48,1,20)  1.280801E-02 1.509426E-02 8.349345E-01 3.043490E-01
      107     0 00:08:55  6.035516E-03 3.849577E+01 3.850180E+01 7.791957E+05
               (48,1,20)  1.287489E-02 1.520117E-02 8.370883E-01 3.059189E-01
      108     0 00:09:00  6.115425E-03 3.849680E+01 3.850291E+01 7.792153E+05
               (48,1,20)  1.295060E-02 1.530098E-02 8.411488E-01 3.074596E-01
      109     0 00:09:05  6.194786E-03 3.849781E+01 3.850401E+01 7.792331E+05
               (48,1,20)  1.301284E-02 1.539438E-02 8.458346E-01 3.089835E-01
      110     0 00:09:10  6.273602E-03 3.849880E+01 3.850507E+01 7.792491E+05
               (48,1,20)  1.305415E-02 1.548319E-02 8.496514E-01 3.105025E-01
      111     0 00:09:15  6.351867E-03 3.849975E+01 3.850610E+01 7.792631E+05
               (48,1,20)  1.307887E-02 1.556954E-02 8.520714E-01 3.120250E-01
      112     0 00:09:20  6.429616E-03 3.850065E+01 3.850708E+01 7.792754E+05
               (48,1,20)  1.310003E-02 1.565437E-02 8.533827E-01 3.135534E-01
      113     0 00:09:25  6.506875E-03 3.850150E+01 3.850801E+01 7.792859E+05
               (48,1,20)  1.312719E-02 1.573760E-02 8.544430E-01 3.155317E-01
      114     0 00:09:30  6.583667E-03 3.850229E+01 3.850887E+01 7.792945E+05
               (48,1,20)  1.316044E-02 1.581877E-02 8.559068E-01 3.180128E-01
      115     0 00:09:35  6.660004E-03 3.850300E+01 3.850966E+01 7.793014E+05
               (48,1,20)  1.319435E-02 1.589761E-02 8.577921E-01 3.204696E-01
      116     0 00:09:40  6.735884E-03 3.850362E+01 3.851036E+01 7.793063E+05
               (48,1,20)  1.322115E-02 1.597462E-02 8.597340E-01 3.229152E-01
      117     0 00:09:45  6.811326E-03 3.850414E+01 3.851095E+01 7.793094E+05
               (48,1,20)  1.324008E-02 1.605054E-02 8.612097E-01 3.253592E-01
      118     0 00:09:50  6.886352E-03 3.850454E+01 3.851142E+01 7.793107E+05
               (48,1,20)  1.325265E-02 1.612606E-02 8.621582E-01 3.278005E-01
      119     0 00:09:55  6.961042E-03 3.850483E+01 3.851179E+01 7.793104E+05
               (48,1,20)  1.326494E-02 1.620131E-02 8.626791E-01 3.302332E-01
      120     0 00:10:00  7.035467E-03 3.850504E+01 3.851208E+01 7.793089E+05
               (48,1,20)  1.327838E-02 1.627623E-02 8.631780E-01 3.326502E-01
      121     0 00:10:05  7.109730E-03 3.850519E+01 3.851230E+01 7.793064E+05
               (48,1,20)  1.329505E-02 1.635048E-02 8.637589E-01 3.350524E-01
      122     0 00:10:10  7.183877E-03 3.850529E+01 3.851248E+01 7.793034E+05
               (48,1,20)  1.331191E-02 1.642400E-02 8.645561E-01 3.374427E-01
      123     0 00:10:15  7.257956E-03 3.850537E+01 3.851263E+01 7.792998E+05
               (48,1,20)  1.332926E-02 1.649663E-02 8.653743E-01 3.398266E-01
      124     0 00:10:20  7.331959E-03 3.850542E+01 3.851275E+01 7.792960E+05
               (48,1,20)  1.334456E-02 1.656856E-02 8.662256E-01 3.422045E-01
      125     0 00:10:25  7.405907E-03 3.850546E+01 3.851287E+01 7.792920E+05
               (48,1,20)  1.335954E-02 1.663977E-02 8.669454E-01 3.445767E-01
      126     0 00:10:30  7.479793E-03 3.850550E+01 3.851297E+01 7.792879E+05
               (48,1,20)  1.337262E-02 1.671044E-02 8.676433E-01 3.469398E-01
      127     0 00:10:35  7.553651E-03 3.850553E+01 3.851308E+01 7.792839E+05
               (48,1,20)  1.338580E-02 1.678053E-02 8.682192E-01 3.492936E-01
      128     0 00:10:40  7.627474E-03 3.850558E+01 3.851320E+01 7.792800E+05
               (48,1,20)  1.339719E-02 1.685020E-02 8.688004E-01 3.516362E-01
      129     0 00:10:45  7.701288E-03 3.850563E+01 3.851334E+01 7.792762E+05
               (48,1,20)  1.340844E-02 1.691944E-02 8.692669E-01 3.539691E-01
      130     0 00:10:50  7.775078E-03 3.850570E+01 3.851348E+01 7.792726E+05
               (48,1,20)  1.341749E-02 1.698848E-02 8.697226E-01 3.562912E-01
      131     0 00:10:55  7.848870E-03 3.850578E+01 3.851363E+01 7.792691E+05
               (48,1,20)  1.342594E-02 1.705735E-02 8.700365E-01 3.586035E-01
      132     0 00:11:00  7.922652E-03 3.850586E+01 3.851378E+01 7.792657E+05
               (48,1,20)  1.343188E-02 1.712626E-02 8.703086E-01 3.609048E-01
      133     0 00:11:05  7.996454E-03 3.850594E+01 3.851394E+01 7.792624E+05
               (48,1,20)  1.343690E-02 1.719524E-02 8.704175E-01 3.631959E-01
      134     0 00:11:10  8.070266E-03 3.850602E+01 3.851409E+01 7.792591E+05
               (48,1,20)  1.343929E-02 1.726452E-02 8.704623E-01 3.654757E-01
      135     0 00:11:15  8.144118E-03 3.850609E+01 3.851424E+01 7.792559E+05
               (48,1,20)  1.344050E-02 1.733415E-02 8.703345E-01 3.677451E-01
      136     0 00:11:20  8.218002E-03 3.850615E+01 3.851437E+01 7.792526E+05
               (48,1,20)  1.343909E-02 1.740436E-02 8.701256E-01 3.700035E-01
      137     0 00:11:25  8.291948E-03 3.850618E+01 3.851448E+01 7.792493E+05
               (48,1,20)  1.343640E-02 1.747520E-02 8.697436E-01 3.722520E-01
      138     0 00:11:30  8.365955E-03 3.850619E+01 3.851456E+01 7.792458E+05
               (48,1,20)  1.343139E-02 1.754686E-02 8.692728E-01 3.744903E-01
      139     0 00:11:35  8.440059E-03 3.850617E+01 3.851461E+01 7.792423E+05
               (48,1,20)  1.342530E-02 1.761936E-02 8.686487E-01 3.767194E-01
      140     0 00:11:40  8.514271E-03 3.850612E+01 3.851463E+01 7.792386E+05
               (48,1,20)  1.341761E-02 1.769283E-02 8.679493E-01 3.789393E-01
      141     0 00:11:45  8.588639E-03 3.850603E+01 3.851462E+01 7.792349E+05
               (48,1,20)  1.340938E-02 1.776723E-02 8.671437E-01 3.811508E-01
      142     0 00:11:50  8.663192E-03 3.850592E+01 3.851458E+01 7.792311E+05
               (48,1,20)  1.340051E-02 1.784261E-02 8.662990E-01 3.833537E-01
      143     0 00:11:55  8.737988E-03 3.850579E+01 3.851453E+01 7.792275E+05
               (48,1,20)  1.339165E-02 1.791887E-02 8.654120E-01 3.855487E-01
      144     0 00:12:00  8.813062E-03 3.850565E+01 3.851446E+01 7.792241E+05
               (48,1,20)  1.338290E-02 1.799596E-02 8.645244E-01 3.877358E-01
      145     0 00:12:05  8.888456E-03 3.850550E+01 3.851439E+01 7.792209E+05
               (48,1,20)  1.337432E-02 1.807382E-02 8.636448E-01 3.899154E-01
      146     0 00:12:10  8.964182E-03 3.850535E+01 3.851431E+01 7.792179E+05
               (48,1,20)  1.336611E-02 1.815234E-02 8.627765E-01 3.920878E-01
      147     0 00:12:15  9.040251E-03 3.850519E+01 3.851423E+01 7.792152E+05
               (48,1,20)  1.335787E-02 1.823148E-02 8.619326E-01 3.942535E-01
      148     0 00:12:20  9.116667E-03 3.850503E+01 3.851414E+01 7.792128E+05
               (48,1,20)  1.335014E-02 1.831117E-02 8.610879E-01 3.964128E-01
      149     0 00:12:25  9.193447E-03 3.850486E+01 3.851405E+01 7.792105E+05
               (48,1,20)  1.334253E-02 1.839137E-02 8.602778E-01 3.985656E-01
      150     0 00:12:30  9.270608E-03 3.850469E+01 3.851396E+01 7.792086E+05
               (48,1,20)  1.333616E-02 1.847192E-02 8.594769E-01 4.007124E-01
      151     0 00:12:35  9.348168E-03 3.850452E+01 3.851387E+01 7.792069E+05
               (48,1,20)  1.333066E-02 1.855273E-02 8.587590E-01 4.028523E-01
      152     0 00:12:40  9.426136E-03 3.850436E+01 3.851378E+01 7.792055E+05
               (48,1,20)  1.332734E-02 1.863355E-02 8.581021E-01 4.049856E-01
      153     0 00:12:45  9.504512E-03 3.850419E+01 3.851370E+01 7.792044E+05
               (48,1,20)  1.332537E-02 1.871424E-02 8.575914E-01 4.071117E-01
      154     0 00:12:50  9.583297E-03 3.850404E+01 3.851362E+01 7.792036E+05
               (48,1,20)  1.332567E-02 1.879453E-02 8.571757E-01 4.092309E-01
      155     0 00:12:55  9.662488E-03 3.850388E+01 3.851354E+01 7.792030E+05
               (48,1,20)  1.332690E-02 1.887433E-02 8.569134E-01 4.113427E-01
      156     0 00:13:00  9.742091E-03 3.850373E+01 3.851347E+01 7.792026E+05
               (48,1,20)  1.332975E-02 1.895344E-02 8.567181E-01 4.134473E-01
      157     0 00:13:05  9.822102E-03 3.850358E+01 3.851341E+01 7.792025E+05
               (48,1,20)  1.333293E-02 1.903187E-02 8.566332E-01 4.155437E-01
      158     0 00:13:10  9.902524E-03 3.850345E+01 3.851335E+01 7.792026E+05
               (48,1,20)  1.333732E-02 1.910946E-02 8.565764E-01 4.176318E-01
      159     0 00:13:15  9.983347E-03 3.850332E+01 3.851330E+01 7.792030E+05
               (48,1,20)  1.334185E-02 1.918626E-02 8.566012E-01 4.197106E-01
      160     0 00:13:20  1.006457E-02 3.850319E+01 3.851326E+01 7.792036E+05
               (48,1,20)  1.334729E-02 1.926219E-02 8.566413E-01 4.217799E-01
      161     0 00:13:25  1.014618E-02 3.850308E+01 3.851323E+01 7.792044E+05
               (48,1,20)  1.335257E-02 1.933731E-02 8.567443E-01 4.238388E-01
      162     0 00:13:30  1.022818E-02 3.850298E+01 3.851321E+01 7.792054E+05
               (48,1,20)  1.335821E-02 1.941156E-02 8.568421E-01 4.258876E-01
      163     0 00:13:35  1.031054E-02 3.850288E+01 3.851319E+01 7.792066E+05
               (48,1,20)  1.336326E-02 1.948504E-02 8.569656E-01 4.279257E-01
      164     0 00:13:40  1.039325E-02 3.850280E+01 3.851320E+01 7.792079E+05
               (48,1,20)  1.336824E-02 1.955777E-02 8.570537E-01 4.299533E-01
      165     0 00:13:45  1.047631E-02 3.850273E+01 3.851321E+01 7.792094E+05
               (48,1,20)  1.337249E-02 1.962985E-02 8.571386E-01 4.319699E-01
      166     0 00:13:50  1.055970E-02 3.850267E+01 3.851323E+01 7.792111E+05
               (48,1,20)  1.337660E-02 1.970130E-02 8.571792E-01 4.339757E-01
      167     0 00:13:55  1.064340E-02 3.850262E+01 3.851327E+01 7.792129E+05
               (48,1,20)  1.338005E-02 1.977221E-02 8.572109E-01 4.359703E-01
      168     0 00:14:00  1.072740E-02 3.850259E+01 3.851332E+01 7.792148E+05
               (48,1,20)  1.338334E-02 1.984259E-02 8.572023E-01 4.379541E-01
      169     0 00:14:05  1.081167E-02 3.850256E+01 3.851337E+01 7.792168E+05
               (48,1,20)  1.338603E-02 1.991253E-02 8.571841E-01 4.399271E-01
      170     0 00:14:10  1.089621E-02 3.850255E+01 3.851344E+01 7.792189E+05
               (48,1,20)  1.338862E-02 1.998204E-02 8.571291E-01 4.418896E-01
      171     0 00:14:15  1.098099E-02 3.850254E+01 3.851353E+01 7.792210E+05
               (48,1,20)  1.339081E-02 2.005116E-02 8.570684E-01 4.438417E-01
      172     0 00:14:20  1.106601E-02 3.850255E+01 3.851362E+01 7.792232E+05
               (48,1,20)  1.339315E-02 2.011989E-02 8.569835E-01 4.457837E-01
      173     0 00:14:25  1.115123E-02 3.850257E+01 3.851372E+01 7.792254E+05
               (48,1,20)  1.339544E-02 2.018825E-02 8.569100E-01 4.477155E-01
      174     0 00:14:30  1.123665E-02 3.850259E+01 3.851383E+01 7.792276E+05
               (48,1,20)  1.339819E-02 2.025618E-02 8.568354E-01 4.496373E-01
      175     0 00:14:35  1.132225E-02 3.850262E+01 3.851394E+01 7.792298E+05
               (48,1,20)  1.340115E-02 2.032367E-02 8.567939E-01 4.515490E-01
      176     0 00:14:40  1.140802E-02 3.850265E+01 3.851406E+01 7.792320E+05
               (48,1,20)  1.340467E-02 2.039066E-02 8.567689E-01 4.534506E-01
      177     0 00:14:45  1.149394E-02 3.850270E+01 3.851419E+01 7.792341E+05
               (48,1,20)  1.340833E-02 2.045713E-02 8.567833E-01 4.553422E-01
      178     0 00:14:50  1.158001E-02 3.850274E+01 3.851432E+01 7.792362E+05
               (48,1,20)  1.341231E-02 2.052308E-02 8.568107E-01 4.572239E-01
      179     0 00:14:55  1.166620E-02 3.850279E+01 3.851445E+01 7.792382E+05
               (48,1,20)  1.341621E-02 2.058853E-02 8.568620E-01 4.590956E-01
      180     0 00:15:00  1.175252E-02 3.850284E+01 3.851459E+01 7.792402E+05
               (48,1,20)  1.342022E-02 2.065346E-02 8.569104E-01 4.609572E-01
      181     0 00:15:05  1.183894E-02 3.850289E+01 3.851473E+01 7.792420E+05
               (48,1,20)  1.342411E-02 2.071789E-02 8.569690E-01 4.628086E-01
      182     0 00:15:10  1.192548E-02 3.850294E+01 3.851487E+01 7.792438E+05
               (48,1,20)  1.342815E-02 2.078182E-02 8.570225E-01 4.646497E-01
      183     0 00:15:15  1.201211E-02 3.850299E+01 3.851500E+01 7.792454E+05
               (48,1,20)  1.343215E-02 2.084526E-02 8.570879E-01 4.666074E-01
      184     0 00:15:20  1.209884E-02 3.850304E+01 3.851514E+01 7.792470E+05
               (48,1,20)  1.343625E-02 2.090819E-02 8.571538E-01 4.687511E-01
      185     0 00:15:25  1.218566E-02 3.850309E+01 3.851528E+01 7.792484E+05
               (48,1,20)  1.344021E-02 2.097065E-02 8.572286E-01 4.708875E-01
      186     0 00:15:30  1.227256E-02 3.850314E+01 3.851541E+01 7.792498E+05
               (48,1,20)  1.344409E-02 2.103264E-02 8.572970E-01 4.730164E-01
      187     0 00:15:35  1.235955E-02 3.850318E+01 3.851554E+01 7.792510E+05
               (48,1,20)  1.344775E-02 2.109418E-02 8.573626E-01 4.751378E-01
      188     0 00:15:40  1.244661E-02 3.850322E+01 3.851567E+01 7.792522E+05
               (48,1,20)  1.345134E-02 2.115530E-02 8.574162E-01 4.772516E-01
      189     0 00:15:45  1.253375E-02 3.850326E+01 3.851579E+01 7.792532E+05
               (48,1,20)  1.345479E-02 2.121601E-02 8.574663E-01 4.793579E-01
      190     0 00:15:50  1.262097E-02 3.850329E+01 3.851591E+01 7.792542E+05
               (48,1,20)  1.345822E-02 2.127631E-02 8.575105E-01 4.814566E-01
      191     0 00:15:55  1.270826E-02 3.850333E+01 3.851603E+01 7.792551E+05
               (48,1,20)  1.346157E-02 2.133623E-02 8.575554E-01 4.835476E-01
      192     0 00:16:00  1.279562E-02 3.850335E+01 3.851615E+01 7.792559E+05
               (48,1,20)  1.346485E-02 2.139575E-02 8.575968E-01 4.856309E-01
      193     0 00:16:05  1.288306E-02 3.850338E+01 3.851626E+01 7.792567E+05
               (48,1,20)  1.346801E-02 2.145491E-02 8.576362E-01 4.877063E-01
      194     0 00:16:10  1.297056E-02 3.850340E+01 3.851638E+01 7.792573E+05
               (48,1,20)  1.347107E-02 2.151371E-02 8.576695E-01 4.897739E-01
      195     0 00:16:15  1.305814E-02 3.850343E+01 3.851649E+01 7.792580E+05
               (48,1,20)  1.347401E-02 2.157217E-02 8.576981E-01 4.918336E-01
      196     0 00:16:20  1.314578E-02 3.850345E+01 3.851659E+01 7.792585E+05
               (48,1,20)  1.347686E-02 2.163029E-02 8.577209E-01 4.938855E-01
      197     0 00:16:25  1.323348E-02 3.850347E+01 3.851670E+01 7.792591E+05
               (48,1,20)  1.347960E-02 2.168808E-02 8.577393E-01 4.959295E-01
      198     0 00:16:30  1.332126E-02 3.850348E+01 3.851680E+01 7.792596E+05
               (48,1,20)  1.348224E-02 2.174556E-02 8.577527E-01 4.979655E-01
      199     0 00:16:35  1.340910E-02 3.850350E+01 3.851691E+01 7.792601E+05
               (48,1,20)  1.348476E-02 2.180274E-02 8.577612E-01 4.999934E-01
      200     0 00:16:40  1.349700E-02 3.850351E+01 3.851701E+01 7.792605E+05
               (48,1,20)  1.348716E-02 2.185963E-02 8.577637E-01 5.020134E-01
      201     0 00:16:45  1.358496E-02 3.850353E+01 3.851711E+01 7.792609E+05
               (48,1,20)  1.348943E-02 2.191624E-02 8.577600E-01 5.040253E-01
      202     0 00:16:50  1.367299E-02 3.850354E+01 3.851721E+01 7.792614E+05
               (48,1,20)  1.349156E-02 2.197260E-02 8.577496E-01 5.060290E-01
      203     0 00:16:55  1.376108E-02 3.850355E+01 3.851731E+01 7.792617E+05
               (48,1,20)  1.349357E-02 2.202873E-02 8.577325E-01 5.080247E-01
      204     0 00:17:00  1.384923E-02 3.850356E+01 3.851741E+01 7.792621E+05
               (48,1,20)  1.349546E-02 2.208461E-02 8.577083E-01 5.100122E-01
      205     0 00:17:05  1.393744E-02 3.850357E+01 3.851751E+01 7.792625E+05
               (48,1,20)  1.349722E-02 2.214027E-02 8.576776E-01 5.119916E-01
      206     0 00:17:10  1.402571E-02 3.850358E+01 3.851761E+01 7.792628E+05
               (48,1,20)  1.349886E-02 2.219571E-02 8.576396E-01 5.139628E-01
      207     0 00:17:15  1.411404E-02 3.850359E+01 3.851770E+01 7.792632E+05
               (48,1,20)  1.350037E-02 2.225094E-02 8.575957E-01 5.159257E-01
      208     0 00:17:20  1.420243E-02 3.850359E+01 3.851779E+01 7.792635E+05
               (48,1,20)  1.350179E-02 2.230596E-02 8.575444E-01 5.178805E-01
      209     0 00:17:25  1.429087E-02 3.850359E+01 3.851789E+01 7.792638E+05
               (48,1,20)  1.350308E-02 2.236078E-02 8.574883E-01 5.198270E-01
      210     0 00:17:30  1.437938E-02 3.850360E+01 3.851798E+01 7.792641E+05
               (48,1,20)  1.350431E-02 2.241541E-02 8.574252E-01 5.217654E-01
      211     0 00:17:35  1.446795E-02 3.850360E+01 3.851807E+01 7.792644E+05
               (48,1,20)  1.350542E-02 2.246984E-02 8.573591E-01 5.236954E-01
      212     0 00:17:40  1.455657E-02 3.850360E+01 3.851815E+01 7.792647E+05
               (48,1,20)  1.350649E-02 2.252408E-02 8.572867E-01 5.256172E-01
      213     0 00:17:45  1.464526E-02 3.850359E+01 3.851824E+01 7.792650E+05
               (48,1,20)  1.350747E-02 2.257813E-02 8.572134E-01 5.275308E-01
      214     0 00:17:50  1.473401E-02 3.850359E+01 3.851833E+01 7.792654E+05
               (48,1,20)  1.350844E-02 2.263199E-02 8.571348E-01 5.294361E-01
      215     0 00:17:55  1.482281E-02 3.850359E+01 3.851841E+01 7.792657E+05
               (48,1,20)  1.350933E-02 2.268566E-02 8.570573E-01 5.313332E-01
      216     0 00:18:00  1.491168E-02 3.850358E+01 3.851849E+01 7.792660E+05
               (48,1,20)  1.351025E-02 2.273914E-02 8.569754E-01 5.332220E-01
      217     0 00:18:05  1.500061E-02 3.850358E+01 3.851858E+01 7.792663E+05
               (48,1,20)  1.351108E-02 2.279242E-02 8.568965E-01 5.351025E-01
      218     0 00:18:10  1.508959E-02 3.850357E+01 3.851866E+01 7.792667E+05
               (48,1,20)  1.351198E-02 2.284549E-02 8.568139E-01 5.369748E-01
      219     0 00:18:15  1.517864E-02 3.850356E+01 3.851874E+01 7.792670E+05
               (48,1,20)  1.351281E-02 2.289837E-02 8.567361E-01 5.388388E-01
      220     0 00:18:20  1.526775E-02 3.850356E+01 3.851883E+01 7.792674E+05
               (48,1,20)  1.351372E-02 2.295102E-02 8.566556E-01 5.406945E-01
      221     0 00:18:25  1.535691E-02 3.850355E+01 3.851891E+01 7.792678E+05
               (48,1,20)  1.351459E-02 2.300347E-02 8.565817E-01 5.425419E-01
      222     0 00:18:30  1.544613E-02 3.850354E+01 3.851899E+01 7.792682E+05
               (48,1,20)  1.351556E-02 2.305568E-02 8.565060E-01 5.443811E-01
      223     0 00:18:35  1.553541E-02 3.850354E+01 3.851907E+01 7.792686E+05
               (48,1,20)  1.351649E-02 2.310767E-02 8.564385E-01 5.462120E-01
      224     0 00:18:40  1.562475E-02 3.850353E+01 3.851915E+01 7.792691E+05
               (48,1,20)  1.351753E-02 2.315941E-02 8.563695E-01 5.480345E-01
      225     0 00:18:45  1.571414E-02 3.850352E+01 3.851923E+01 7.792695E+05
               (48,1,20)  1.351853E-02 2.321091E-02 8.563096E-01 5.498488E-01
      226     0 00:18:50  1.580359E-02 3.850351E+01 3.851932E+01 7.792700E+05
               (48,1,20)  1.351965E-02 2.326215E-02 8.562480E-01 5.516547E-01
      227     0 00:18:55  1.589309E-02 3.850351E+01 3.851940E+01 7.792705E+05
               (48,1,20)  1.352072E-02 2.331314E-02 8.561955E-01 5.534523E-01
      228     0 00:19:00  1.598265E-02 3.850350E+01 3.851948E+01 7.792710E+05
               (48,1,20)  1.352190E-02 2.336386E-02 8.561410E-01 5.552416E-01
      229     0 00:19:05  1.607225E-02 3.850349E+01 3.851956E+01 7.792715E+05
               (48,1,20)  1.352302E-02 2.341432E-02 8.560952E-01 5.572559E-01
      230     0 00:19:10  1.616190E-02 3.850349E+01 3.851965E+01 7.792720E+05
               (48,1,20)  1.352425E-02 2.346450E-02 8.560471E-01 5.594074E-01
      231     0 00:19:15  1.625160E-02 3.850348E+01 3.851973E+01 7.792726E+05
               (48,1,20)  1.352541E-02 2.351441E-02 8.560070E-01 5.615551E-01
      232     0 00:19:20  1.634134E-02 3.850348E+01 3.851982E+01 7.792731E+05
               (48,1,20)  1.352667E-02 2.356404E-02 8.559640E-01 5.636987E-01
      233     0 00:19:25  1.643113E-02 3.850347E+01 3.851990E+01 7.792737E+05
               (48,1,20)  1.352785E-02 2.361339E-02 8.559282E-01 5.658383E-01
      234     0 00:19:30  1.652096E-02 3.850347E+01 3.851999E+01 7.792743E+05
               (48,1,20)  1.352911E-02 2.366246E-02 8.558887E-01 5.679738E-01
      235     0 00:19:35  1.661083E-02 3.850347E+01 3.852008E+01 7.792749E+05
               (48,1,20)  1.353029E-02 2.371125E-02 8.558557E-01 5.701054E-01
      236     0 00:19:40  1.670074E-02 3.850346E+01 3.852016E+01 7.792755E+05
               (48,1,20)  1.353154E-02 2.375976E-02 8.558186E-01 5.722328E-01
      237     0 00:19:45  1.679068E-02 3.850346E+01 3.852025E+01 7.792761E+05
               (48,1,20)  1.353271E-02 2.380799E-02 8.557873E-01 5.743561E-01
      238     0 00:19:50  1.688065E-02 3.850346E+01 3.852034E+01 7.792767E+05
               (48,1,20)  1.353394E-02 2.385595E-02 8.557519E-01 5.764753E-01
      239     0 00:19:55  1.697066E-02 3.850346E+01 3.852043E+01 7.792774E+05
               (48,1,20)  1.353509E-02 2.390363E-02 8.557219E-01 5.785904E-01
      240     0 00:20:00  1.706069E-02 3.850346E+01 3.852052E+01 7.792780E+05
               (48,1,20)  1.353631E-02 2.395103E-02 8.556878E-01 5.807013E-01
      241     0 00:20:05  1.715075E-02 3.850347E+01 3.852062E+01 7.792786E+05
               (48,1,20)  1.353745E-02 2.399816E-02 8.556590E-01 5.828080E-01
      242     0 00:20:10  1.724083E-02 3.850347E+01 3.852071E+01 7.792793E+05
               (48,1,20)  1.353865E-02 2.404501E-02 8.556261E-01 5.849105E-01
      243     0 00:20:15  1.733094E-02 3.850347E+01 3.852080E+01 7.792799E+05
               (48,1,20)  1.353976E-02 2.409162E-02 8.555986E-01 5.870088E-01
      244     0 00:20:20  1.742106E-02 3.850348E+01 3.852090E+01 7.792806E+05
               (48,1,20)  1.354095E-02 2.413798E-02 8.555674E-01 5.891029E-01
      245     0 00:20:25  1.751121E-02 3.850348E+01 3.852099E+01 7.792812E+05
               (48,1,20)  1.354208E-02 2.418408E-02 8.555416E-01 5.911927E-01
      246     0 00:20:30  1.760136E-02 3.850348E+01 3.852109E+01 7.792819E+05
               (48,1,20)  1.354326E-02 2.422991E-02 8.555125E-01 5.932782E-01
      247     0 00:20:35  1.769153E-02 3.850349E+01 3.852118E+01 7.792825E+05
               (48,1,20)  1.354439E-02 2.427549E-02 8.554887E-01 5.953595E-01
      248     0 00:20:40  1.778171E-02 3.850350E+01 3.852128E+01 7.792832E+05
               (48,1,20)  1.354557E-02 2.432081E-02 8.554617E-01 5.974364E-01
      249     0 00:20:45  1.787190E-02 3.850350E+01 3.852137E+01 7.792838E+05
               (48,1,20)  1.354669E-02 2.436587E-02 8.554397E-01 5.995091E-01
      250     0 00:20:50  1.796210E-02 3.850351E+01 3.852147E+01 7.792844E+05
               (48,1,20)  1.354787E-02 2.441066E-02 8.554146E-01 6.015773E-01
      251     0 00:20:55  1.805230E-02 3.850352E+01 3.852157E+01 7.792851E+05
               (48,1,20)  1.354898E-02 2.445520E-02 8.553941E-01 6.036413E-01
      252     0 00:21:00  1.814250E-02 3.850352E+01 3.852167E+01 7.792857E+05
               (48,1,20)  1.355014E-02 2.449947E-02 8.553705E-01 6.057008E-01
      253     0 00:21:05  1.823270E-02 3.850353E+01 3.852176E+01 7.792863E+05
               (48,1,20)  1.355125E-02 2.454349E-02 8.553514E-01 6.077560E-01
      254     0 00:21:10  1.832291E-02 3.850354E+01 3.852186E+01 7.792869E+05
               (48,1,20)  1.355240E-02 2.458724E-02 8.553291E-01 6.098067E-01
      255     0 00:21:15  1.841311E-02 3.850355E+01 3.852196E+01 7.792875E+05
               (48,1,20)  1.355348E-02 2.463074E-02 8.553110E-01 6.118531E-01
      256     0 00:21:20  1.850331E-02 3.850355E+01 3.852206E+01 7.792881E+05
               (48,1,20)  1.355461E-02 2.467399E-02 8.552898E-01 6.138950E-01
      257     0 00:21:25  1.859350E-02 3.850356E+01 3.852215E+01 7.792887E+05
               (48,1,20)  1.355568E-02 2.471698E-02 8.552723E-01 6.159324E-01
      258     0 00:21:30  1.868369E-02 3.850357E+01 3.852225E+01 7.792892E+05
               (48,1,20)  1.355679E-02 2.475972E-02 8.552517E-01 6.179654E-01
      259     0 00:21:35  1.877386E-02 3.850358E+01 3.852235E+01 7.792898E+05
               (48,1,20)  1.355783E-02 2.480221E-02 8.552345E-01 6.199939E-01
      260     0 00:21:40  1.886403E-02 3.850358E+01 3.852245E+01 7.792903E+05
               (48,1,20)  1.355891E-02 2.484445E-02 8.552143E-01 6.220179E-01
      261     0 00:21:45  1.895419E-02 3.850359E+01 3.852255E+01 7.792909E+05
               (48,1,20)  1.355993E-02 2.488644E-02 8.551974E-01 6.240374E-01
      262     0 00:21:50  1.904434E-02 3.850360E+01 3.852264E+01 7.792914E+05
               (48,1,20)  1.356099E-02 2.492818E-02 8.551775E-01 6.260523E-01
      263     0 00:21:55  1.913447E-02 3.850361E+01 3.852274E+01 7.792919E+05
               (48,1,20)  1.356199E-02 2.496969E-02 8.551606E-01 6.280627E-01
      264     0 00:22:00  1.922459E-02 3.850361E+01 3.852284E+01 7.792924E+05
               (48,1,20)  1.356301E-02 2.501095E-02 8.551408E-01 6.300686E-01
      265     0 00:22:05  1.931469E-02 3.850362E+01 3.852294E+01 7.792929E+05
               (48,1,20)  1.356398E-02 2.505197E-02 8.551239E-01 6.320698E-01
      266     0 00:22:10  1.940478E-02 3.850363E+01 3.852303E+01 7.792934E+05
               (48,1,20)  1.356498E-02 2.509275E-02 8.551040E-01 6.340665E-01
      267     0 00:22:15  1.949485E-02 3.850364E+01 3.852313E+01 7.792939E+05
               (48,1,20)  1.356592E-02 2.513329E-02 8.550868E-01 6.360586E-01
      268     0 00:22:20  1.958490E-02 3.850364E+01 3.852323E+01 7.792944E+05
               (48,1,20)  1.356689E-02 2.517360E-02 8.550668E-01 6.380461E-01
      269     0 00:22:25  1.967493E-02 3.850365E+01 3.852332E+01 7.792949E+05
               (48,1,20)  1.356780E-02 2.521368E-02 8.550494E-01 6.400290E-01
      270     0 00:22:30  1.976495E-02 3.850366E+01 3.852342E+01 7.792953E+05
               (48,1,20)  1.356873E-02 2.525352E-02 8.550291E-01 6.420072E-01
      271     0 00:22:35  1.985494E-02 3.850366E+01 3.852352E+01 7.792958E+05
               (48,1,20)  1.356962E-02 2.529314E-02 8.550113E-01 6.439807E-01
      272     0 00:22:40  1.994491E-02 3.850367E+01 3.852361E+01 7.792963E+05
               (48,1,20)  1.357052E-02 2.533252E-02 8.549907E-01 6.459497E-01
      273     0 00:22:45  2.003485E-02 3.850367E+01 3.852371E+01 7.792967E+05
               (48,1,20)  1.357137E-02 2.537169E-02 8.549724E-01 6.479139E-01
      274     0 00:22:50  2.012477E-02 3.850368E+01 3.852381E+01 7.792971E+05
               (48,1,20)  1.357225E-02 2.541062E-02 8.549514E-01 6.498734E-01
      275     0 00:22:55  2.021467E-02 3.850369E+01 3.852390E+01 7.792976E+05
               (48,1,20)  1.357307E-02 2.544934E-02 8.549328E-01 6.518283E-01
      276     0 00:23:00  2.030454E-02 3.850369E+01 3.852400E+01 7.792980E+05
               (48,1,20)  1.357392E-02 2.548783E-02 8.549114E-01 6.537784E-01
      277     0 00:23:05  2.039439E-02 3.850370E+01 3.852409E+01 7.792984E+05
               (48,1,20)  1.357472E-02 2.552610E-02 8.548923E-01 6.557238E-01
      278     0 00:23:10  2.048421E-02 3.850370E+01 3.852419E+01 7.792988E+05
               (48,1,20)  1.357554E-02 2.556415E-02 8.548706E-01 6.576645E-01
      279     0 00:23:15  2.057400E-02 3.850371E+01 3.852428E+01 7.792992E+05
               (48,1,20)  1.357630E-02 2.560199E-02 8.548511E-01 6.596004E-01
      280     0 00:23:20  2.066377E-02 3.850371E+01 3.852438E+01 7.792996E+05
               (48,1,20)  1.357710E-02 2.563962E-02 8.548292E-01 6.615316E-01
      281     0 00:23:25  2.075350E-02 3.850372E+01 3.852447E+01 7.793000E+05
               (48,1,20)  1.357784E-02 2.567703E-02 8.548095E-01 6.634580E-01
      282     0 00:23:30  2.084321E-02 3.850372E+01 3.852457E+01 7.793004E+05
               (48,1,20)  1.357861E-02 2.571422E-02 8.547873E-01 6.653796E-01
      283     0 00:23:35  2.093288E-02 3.850373E+01 3.852466E+01 7.793008E+05
               (48,1,20)  1.357934E-02 2.575121E-02 8.547675E-01 6.672965E-01
      284     0 00:23:40  2.102253E-02 3.850373E+01 3.852476E+01 7.793012E+05
               (48,1,20)  1.358009E-02 2.578798E-02 8.547453E-01 6.692085E-01
      285     0 00:23:45  2.111214E-02 3.850374E+01 3.852485E+01 7.793016E+05
               (48,1,20)  1.358079E-02 2.582455E-02 8.547255E-01 6.711158E-01
      286     0 00:23:50  2.120173E-02 3.850374E+01 3.852494E+01 7.793019E+05
               (48,1,20)  1.358152E-02 2.586090E-02 8.547034E-01 6.730182E-01
      287     0 00:23:55  2.129128E-02 3.850375E+01 3.852504E+01 7.793023E+05
               (48,1,20)  1.358221E-02 2.589705E-02 8.546838E-01 6.749158E-01
      288     0 00:24:00  2.138080E-02 3.850375E+01 3.852513E+01 7.793027E+05
               (48,1,20)  1.358293E-02 2.593299E-02 8.546619E-01 6.768086E-01
      289     0 00:24:05  2.147028E-02 3.850376E+01 3.852523E+01 7.793030E+05
               (48,1,20)  1.358360E-02 2.596872E-02 8.546426E-01 6.786965E-01
      290     0 00:24:10  2.155973E-02 3.850376E+01 3.852532E+01 7.793034E+05
               (48,1,20)  1.358431E-02 2.600425E-02 8.546211E-01 6.805796E-01
      291     0 00:24:15  2.164915E-02 3.850376E+01 3.852541E+01 7.793037E+05
               (48,1,20)  1.358497E-02 2.603958E-02 8.546023E-01 6.824578E-01
      292     0 00:24:20  2.173853E-02 3.850377E+01 3.852551E+01 7.793041E+05
               (48,1,20)  1.358566E-02 2.607469E-02 8.545814E-01 6.843311E-01
      293     0 00:24:25  2.182787E-02 3.850377E+01 3.852560E+01 7.793044E+05
               (48,1,20)  1.358632E-02 2.610961E-02 8.545631E-01 6.861995E-01
      294     0 00:24:30  2.191718E-02 3.850377E+01 3.852569E+01 7.793048E+05
               (48,1,20)  1.358700E-02 2.614432E-02 8.545429E-01 6.880631E-01
      295     0 00:24:35  2.200646E-02 3.850378E+01 3.852578E+01 7.793051E+05
               (48,1,20)  1.358765E-02 2.617883E-02 8.545253E-01 6.899218E-01
      296     0 00:24:40  2.209570E-02 3.850378E+01 3.852588E+01 7.793054E+05
               (48,1,20)  1.358833E-02 2.621314E-02 8.545058E-01 6.917755E-01
      297     0 00:24:45  2.218489E-02 3.850379E+01 3.852597E+01 7.793058E+05
               (48,1,20)  1.358897E-02 2.624725E-02 8.544889E-01 6.936244E-01
      298     0 00:24:50  2.227406E-02 3.850379E+01 3.852606E+01 7.793061E+05
               (48,1,20)  1.358964E-02 2.628115E-02 8.544702E-01 6.954683E-01
      299     0 00:24:55  2.236318E-02 3.850379E+01 3.852616E+01 7.793064E+05
               (48,1,20)  1.359027E-02 2.631486E-02 8.544541E-01 6.973073E-01
      300     0 00:25:00  2.245226E-02 3.850380E+01 3.852625E+01 7.793067E+05
               (48,1,20)  1.359094E-02 2.634836E-02 8.544361E-01 6.991413E-01
      301     0 00:25:05  2.254131E-02 3.850380E+01 3.852634E+01 7.793070E+05
               (48,1,20)  1.359157E-02 2.638167E-02 8.544208E-01 7.009704E-01
      302     0 00:25:10  2.263031E-02 3.850380E+01 3.852643E+01 7.793074E+05
               (48,1,20)  1.359223E-02 2.641477E-02 8.544036E-01 7.027945E-01
      303     0 00:25:15  2.271928E-02 3.850381E+01 3.852653E+01 7.793077E+05
               (48,1,20)  1.359285E-02 2.644768E-02 8.543890E-01 7.046137E-01
      304     0 00:25:20  2.280820E-02 3.850381E+01 3.852662E+01 7.793080E+05
               (48,1,20)  1.359350E-02 2.648039E-02 8.543727E-01 7.064280E-01
      305     0 00:25:25  2.289709E-02 3.850381E+01 3.852671E+01 7.793083E+05
               (48,1,20)  1.359412E-02 2.651291E-02 8.543588E-01 7.082372E-01
      306     0 00:25:30  2.298593E-02 3.850382E+01 3.852680E+01 7.793086E+05
               (48,1,20)  1.359476E-02 2.654522E-02 8.543432E-01 7.100415E-01
      307     0 00:25:35  2.307473E-02 3.850382E+01 3.852689E+01 7.793089E+05
               (48,1,20)  1.359538E-02 2.657735E-02 8.543299E-01 7.118407E-01
      308     0 00:25:40  2.316349E-02 3.850382E+01 3.852699E+01 7.793091E+05
               (48,1,20)  1.359601E-02 2.660928E-02 8.543151E-01 7.136350E-01
      309     0 00:25:45  2.325220E-02 3.850383E+01 3.852708E+01 7.793094E+05
               (48,1,20)  1.359662E-02 2.664101E-02 8.543025E-01 7.154243E-01
      310     0 00:25:50  2.334087E-02 3.850383E+01 3.852717E+01 7.793097E+05
               (48,1,20)  1.359725E-02 2.667255E-02 8.542883E-01 7.172086E-01
      311     0 00:25:55  2.342950E-02 3.850383E+01 3.852726E+01 7.793100E+05
               (48,1,20)  1.359785E-02 2.670391E-02 8.542764E-01 7.189879E-01
      312     0 00:26:00  2.351808E-02 3.850384E+01 3.852735E+01 7.793103E+05
               (48,1,20)  1.359848E-02 2.673506E-02 8.542629E-01 7.207621E-01
      313     0 00:26:05  2.360662E-02 3.850384E+01 3.852745E+01 7.793105E+05
               (48,1,20)  1.359907E-02 2.676603E-02 8.542515E-01 7.225313E-01
      314     0 00:26:10  2.369511E-02 3.850384E+01 3.852754E+01 7.793108E+05
               (48,1,20)  1.359969E-02 2.679681E-02 8.542387E-01 7.242955E-01
      315     0 00:26:15  2.378355E-02 3.850385E+01 3.852763E+01 7.793110E+05
               (48,1,20)  1.360028E-02 2.682740E-02 8.542280E-01 7.260547E-01
      316     0 00:26:20  2.387195E-02 3.850385E+01 3.852772E+01 7.793113E+05
               (48,1,20)  1.360089E-02 2.685779E-02 8.542158E-01 7.278088E-01
      317     0 00:26:25  2.396031E-02 3.850385E+01 3.852781E+01 7.793116E+05
               (48,1,20)  1.360147E-02 2.688800E-02 8.542057E-01 7.295579E-01
      318     0 00:26:30  2.404862E-02 3.850385E+01 3.852790E+01 7.793118E+05
               (48,1,20)  1.360208E-02 2.691802E-02 8.541941E-01 7.313020E-01
      319     0 00:26:35  2.413688E-02 3.850386E+01 3.852799E+01 7.793120E+05
               (48,1,20)  1.360265E-02 2.694786E-02 8.541846E-01 7.330409E-01
      320     0 00:26:40  2.422509E-02 3.850386E+01 3.852809E+01 7.793123E+05
               (48,1,20)  1.360325E-02 2.697751E-02 8.541736E-01 7.347749E-01
      321     0 00:26:45  2.431325E-02 3.850386E+01 3.852818E+01 7.793125E+05
               (48,1,20)  1.360382E-02 2.700697E-02 8.541646E-01 7.365038E-01
      322     0 00:26:50  2.440137E-02 3.850387E+01 3.852827E+01 7.793127E+05
               (48,1,20)  1.360442E-02 2.703625E-02 8.541542E-01 7.382276E-01
      323     0 00:26:55  2.448944E-02 3.850387E+01 3.852836E+01 7.793130E+05
               (48,1,20)  1.360498E-02 2.706534E-02 8.541457E-01 7.399463E-01
      324     0 00:27:00  2.457745E-02 3.850387E+01 3.852845E+01 7.793132E+05
               (48,1,20)  1.360556E-02 2.709425E-02 8.541360E-01 7.416600E-01
      325     0 00:27:05  2.466542E-02 3.850387E+01 3.852854E+01 7.793134E+05
               (48,1,20)  1.360612E-02 2.712299E-02 8.541279E-01 7.433686E-01
      326     0 00:27:10  2.475334E-02 3.850388E+01 3.852863E+01 7.793136E+05
               (48,1,20)  1.360670E-02 2.715153E-02 8.541187E-01 7.450721E-01
      327     0 00:27:15  2.484121E-02 3.850388E+01 3.852872E+01 7.793138E+05
               (48,1,20)  1.360725E-02 2.717990E-02 8.541111E-01 7.467706E-01
      328     0 00:27:20  2.492903E-02 3.850388E+01 3.852881E+01 7.793140E+05
               (48,1,20)  1.360782E-02 2.720809E-02 8.541024E-01 7.484640E-01
      329     0 00:27:25  2.501679E-02 3.850389E+01 3.852890E+01 7.793142E+05
               (48,1,20)  1.360837E-02 2.723611E-02 8.540953E-01 7.501523E-01
      330     0 00:27:30  2.510451E-02 3.850389E+01 3.852899E+01 7.793144E+05
               (48,1,20)  1.360893E-02 2.726394E-02 8.540870E-01 7.518355E-01
      331     0 00:27:35  2.519217E-02 3.850389E+01 3.852908E+01 7.793146E+05
               (48,1,20)  1.360947E-02 2.729160E-02 8.540803E-01 7.535136E-01
      332     0 00:27:40  2.527978E-02 3.850389E+01 3.852917E+01 7.793147E+05
               (48,1,20)  1.361002E-02 2.731909E-02 8.540725E-01 7.551866E-01
      333     0 00:27:45  2.536734E-02 3.850389E+01 3.852926E+01 7.793149E+05
               (48,1,20)  1.361055E-02 2.734640E-02 8.540661E-01 7.568545E-01
      334     0 00:27:50  2.545485E-02 3.850390E+01 3.852935E+01 7.793151E+05
               (48,1,20)  1.361110E-02 2.737353E-02 8.540587E-01 7.585174E-01
      335     0 00:27:55  2.554230E-02 3.850390E+01 3.852944E+01 7.793152E+05
               (48,1,20)  1.361163E-02 2.740050E-02 8.540527E-01 7.601751E-01
      336     0 00:28:00  2.562970E-02 3.850390E+01 3.852953E+01 7.793154E+05
               (48,1,20)  1.361217E-02 2.742729E-02 8.540457E-01 7.618278E-01
      337     0 00:28:05  2.571704E-02 3.850390E+01 3.852962E+01 7.793155E+05
               (48,1,20)  1.361268E-02 2.745392E-02 8.540400E-01 7.634753E-01
      338     0 00:28:10  2.580433E-02 3.850391E+01 3.852971E+01 7.793157E+05
               (48,1,20)  1.361321E-02 2.748038E-02 8.540334E-01 7.651178E-01
      339     0 00:28:15  2.589157E-02 3.850391E+01 3.852980E+01 7.793158E+05
               (48,1,20)  1.361372E-02 2.750667E-02 8.540280E-01 7.667551E-01
      340     0 00:28:20  2.597875E-02 3.850391E+01 3.852989E+01 7.793160E+05
               (48,1,20)  1.361425E-02 2.753279E-02 8.540217E-01 7.683874E-01
      341     0 00:28:25  2.606588E-02 3.850391E+01 3.852998E+01 7.793161E+05
               (48,1,20)  1.361475E-02 2.755874E-02 8.540166E-01 7.700145E-01
      342     0 00:28:30  2.615295E-02 3.850391E+01 3.853007E+01 7.793162E+05
               (48,1,20)  1.361526E-02 2.758453E-02 8.540106E-01 7.716366E-01
      343     0 00:28:35  2.623996E-02 3.850391E+01 3.853015E+01 7.793164E+05
               (48,1,20)  1.361576E-02 2.761016E-02 8.540057E-01 7.732535E-01
      344     0 00:28:40  2.632692E-02 3.850392E+01 3.853024E+01 7.793165E+05
               (48,1,20)  1.361627E-02 2.763562E-02 8.540000E-01 7.748653E-01
      345     0 00:28:45  2.641381E-02 3.850392E+01 3.853033E+01 7.793166E+05
               (48,1,20)  1.361675E-02 2.766093E-02 8.539954E-01 7.764721E-01
      346     0 00:28:50  2.650066E-02 3.850392E+01 3.853042E+01 7.793167E+05
               (48,1,20)  1.361725E-02 2.768607E-02 8.539900E-01 7.780737E-01
      347     0 00:28:55  2.658744E-02 3.850392E+01 3.853051E+01 7.793168E+05
               (48,1,20)  1.361773E-02 2.771105E-02 8.539856E-01 7.796703E-01
      348     0 00:29:00  2.667417E-02 3.850392E+01 3.853059E+01 7.793169E+05
               (48,1,20)  1.361822E-02 2.773588E-02 8.539804E-01 7.812617E-01
      349     0 00:29:05  2.676084E-02 3.850392E+01 3.853068E+01 7.793170E+05
               (48,1,20)  1.361870E-02 2.776054E-02 8.539762E-01 7.828480E-01
      350     0 00:29:10  2.684745E-02 3.850392E+01 3.853077E+01 7.793171E+05
               (48,1,20)  1.361918E-02 2.778505E-02 8.539713E-01 7.844580E-01
      351     0 00:29:15  2.693400E-02 3.850392E+01 3.853086E+01 7.793172E+05
[...]
     4216     0 05:51:20  7.881929E-02 3.850344E+01 3.858226E+01 7.793280E+05
               (48,1,20)  1.365604E-02 3.150129E-02 8.524113E-01 1.352099E+00
     4217     0 05:51:25  7.881989E-02 3.850344E+01 3.858226E+01 7.793280E+05
               (48,1,20)  1.365604E-02 3.150129E-02 8.524113E-01 1.352100E+00
     4218     0 05:51:30  7.882048E-02 3.850344E+01 3.858226E+01 7.793280E+05
               (48,1,20)  1.365604E-02 3.150129E-02 8.524113E-01 1.352101E+00
     4219     0 05:51:35  7.882107E-02 3.850344E+01 3.858226E+01 7.793280E+05
               (48,1,20)  1.365604E-02 3.150129E-02 8.524112E-01 1.352102E+00
     4220     0 05:51:40  7.882166E-02 3.850344E+01 3.858227E+01 7.793280E+05
               (48,1,20)  1.365604E-02 3.150130E-02 8.524112E-01 1.352102E+00
     4221     0 05:51:45  7.882225E-02 3.850344E+01 3.858227E+01 7.793280E+05
               (48,1,20)  1.365604E-02 3.150130E-02 8.524112E-01 1.352103E+00
     4222     0 05:51:50  7.882285E-02 3.850344E+01 3.858227E+01 7.793280E+05
               (48,1,20)  1.365604E-02 3.150130E-02 8.524111E-01 1.352104E+00
     4223     0 05:51:55  7.882344E-02 3.850344E+01 3.858227E+01 7.793280E+05
               (48,1,20)  1.365604E-02 3.150130E-02 8.524111E-01 1.352104E+00
     4224     0 05:52:00  7.882403E-02 3.850344E+01 3.858227E+01 7.793280E+05
               (48,1,20)  1.365604E-02 3.150130E-02 8.524111E-01 1.352105E+00
     4225     0 05:52:05  7.882462E-02 3.850344E+01 3.858227E+01 7.793280E+05
               (48,1,20)  1.365604E-02 3.150130E-02 8.524110E-01 1.352106E+00
     4226     0 05:52:10  7.882521E-02 3.850344E+01 3.858227E+01 7.793280E+05
               (48,1,20)  1.365604E-02 3.150130E-02 8.524110E-01 1.352107E+00
     4227     0 05:52:15  7.882580E-02 3.850344E+01 3.858227E+01 7.793280E+05
               (48,1,20)  1.365604E-02 3.150130E-02 8.524110E-01 1.352107E+00
     4228     0 05:52:20  7.882639E-02 3.850344E+01 3.858227E+01 7.793280E+05
               (48,1,20)  1.365604E-02 3.150130E-02 8.524109E-01 1.352108E+00
     4229     0 05:52:25  7.882698E-02 3.850344E+01 3.858227E+01 7.793280E+05
               (48,1,20)  1.365604E-02 3.150130E-02 8.524109E-01 1.352109E+00
     4230     0 05:52:30  7.882757E-02 3.850344E+01 3.858227E+01 7.793280E+05
               (48,1,20)  1.365604E-02 3.150130E-02 8.524109E-01 1.352109E+00
     4231     0 05:52:35  7.882815E-02 3.850344E+01 3.858227E+01 7.793280E+05
               (48,1,20)  1.365604E-02 3.150130E-02 8.524108E-01 1.352110E+00
     4232     0 05:52:40  7.882874E-02 3.850344E+01 3.858227E+01 7.793280E+05
               (48,1,20)  1.365603E-02 3.150130E-02 8.524108E-01 1.352111E+00
     4233     0 05:52:45  7.882933E-02 3.850344E+01 3.858227E+01 7.793280E+05
               (48,1,20)  1.365603E-02 3.150130E-02 8.524108E-01 1.352111E+00
     4234     0 05:52:50  7.882992E-02 3.850344E+01 3.858227E+01 7.793280E+05
               (48,1,20)  1.365603E-02 3.150130E-02 8.524107E-01 1.352112E+00
     4235     0 05:52:55  7.883051E-02 3.850344E+01 3.858227E+01 7.793280E+05
               (48,1,20)  1.365603E-02 3.150130E-02 8.524107E-01 1.352113E+00
     4236     0 05:53:00  7.883109E-02 3.850344E+01 3.858227E+01 7.793280E+05
               (48,1,20)  1.365603E-02 3.150130E-02 8.524107E-01 1.352114E+00
     4237     0 05:53:05  7.883168E-02 3.850344E+01 3.858228E+01 7.793280E+05
               (48,1,20)  1.365603E-02 3.150130E-02 8.524107E-01 1.352114E+00
     4238     0 05:53:10  7.883227E-02 3.850344E+01 3.858228E+01 7.793280E+05
               (48,1,20)  1.365603E-02 3.150130E-02 8.524106E-01 1.352115E+00
     4239     0 05:53:15  7.883285E-02 3.850344E+01 3.858228E+01 7.793280E+05
               (48,1,20)  1.365603E-02 3.150130E-02 8.524106E-01 1.352116E+00
     4240     0 05:53:20  7.883344E-02 3.850344E+01 3.858228E+01 7.793280E+05
               (48,1,20)  1.365603E-02 3.150130E-02 8.524106E-01 1.352116E+00
     4241     0 05:53:25  7.883402E-02 3.850344E+01 3.858228E+01 7.793280E+05
               (48,1,20)  1.365603E-02 3.150130E-02 8.524105E-01 1.352117E+00
     4242     0 05:53:30  7.883461E-02 3.850344E+01 3.858228E+01 7.793280E+05
               (48,1,20)  1.365603E-02 3.150130E-02 8.524105E-01 1.352118E+00
     4243     0 05:53:35  7.883519E-02 3.850344E+01 3.858228E+01 7.793280E+05
               (48,1,20)  1.365603E-02 3.150131E-02 8.524105E-01 1.352118E+00
     4244     0 05:53:40  7.883578E-02 3.850344E+01 3.858228E+01 7.793280E+05
               (48,1,20)  1.365603E-02 3.150131E-02 8.524104E-01 1.352119E+00
     4245     0 05:53:45  7.883636E-02 3.850344E+01 3.858228E+01 7.793280E+05
               (48,1,20)  1.365603E-02 3.150131E-02 8.524104E-01 1.352120E+00
     4246     0 05:53:50  7.883695E-02 3.850344E+01 3.858228E+01 7.793280E+05
               (48,1,20)  1.365603E-02 3.150131E-02 8.524104E-01 1.352120E+00
     4247     0 05:53:55  7.883753E-02 3.850344E+01 3.858228E+01 7.793280E+05
               (48,1,20)  1.365603E-02 3.150131E-02 8.524103E-01 1.352121E+00
     4248     0 05:54:00  7.883811E-02 3.850344E+01 3.858228E+01 7.793280E+05
               (48,1,20)  1.365603E-02 3.150131E-02 8.524103E-01 1.352122E+00
     4249     0 05:54:05  7.883870E-02 3.850344E+01 3.858228E+01 7.793280E+05
               (48,1,20)  1.365603E-02 3.150131E-02 8.524103E-01 1.352123E+00
     4250     0 05:54:10  7.883928E-02 3.850344E+01 3.858228E+01 7.793280E+05
               (48,1,20)  1.365603E-02 3.150131E-02 8.524102E-01 1.352123E+00
     4251     0 05:54:15  7.883986E-02 3.850344E+01 3.858228E+01 7.793280E+05
               (48,1,20)  1.365603E-02 3.150131E-02 8.524102E-01 1.352124E+00
     4252     0 05:54:20  7.884044E-02 3.850344E+01 3.858228E+01 7.793280E+05
               (48,1,20)  1.365603E-02 3.150131E-02 8.524102E-01 1.352125E+00
     4253     0 05:54:25  7.884103E-02 3.850344E+01 3.858228E+01 7.793280E+05
               (48,1,20)  1.365603E-02 3.150131E-02 8.524102E-01 1.352125E+00
     4254     0 05:54:30  7.884161E-02 3.850344E+01 3.858229E+01 7.793280E+05
               (48,1,20)  1.365603E-02 3.150131E-02 8.524101E-01 1.352126E+00
     4255     0 05:54:35  7.884219E-02 3.850344E+01 3.858229E+01 7.793280E+05
               (48,1,20)  1.365603E-02 3.150131E-02 8.524101E-01 1.352127E+00
     4256     0 05:54:40  7.884277E-02 3.850344E+01 3.858229E+01 7.793280E+05
               (48,1,20)  1.365602E-02 3.150131E-02 8.524101E-01 1.352127E+00
     4257     0 05:54:45  7.884335E-02 3.850344E+01 3.858229E+01 7.793280E+05
               (48,1,20)  1.365602E-02 3.150131E-02 8.524100E-01 1.352128E+00
     4258     0 05:54:50  7.884393E-02 3.850344E+01 3.858229E+01 7.793280E+05
               (48,1,20)  1.365602E-02 3.150131E-02 8.524100E-01 1.352129E+00
     4259     0 05:54:55  7.884451E-02 3.850344E+01 3.858229E+01 7.793280E+05
               (48,1,20)  1.365602E-02 3.150131E-02 8.524100E-01 1.352129E+00
     4260     0 05:55:00  7.884509E-02 3.850344E+01 3.858229E+01 7.793280E+05
               (48,1,20)  1.365602E-02 3.150131E-02 8.524099E-01 1.352130E+00
     4261     0 05:55:05  7.884567E-02 3.850344E+01 3.858229E+01 7.793280E+05
               (48,1,20)  1.365602E-02 3.150131E-02 8.524099E-01 1.352131E+00
     4262     0 05:55:10  7.884625E-02 3.850344E+01 3.858229E+01 7.793280E+05
               (48,1,20)  1.365602E-02 3.150131E-02 8.524099E-01 1.352131E+00
     4263     0 05:55:15  7.884683E-02 3.850344E+01 3.858229E+01 7.793280E+05
               (48,1,20)  1.365602E-02 3.150131E-02 8.524098E-01 1.352132E+00
     4264     0 05:55:20  7.884741E-02 3.850344E+01 3.858229E+01 7.793280E+05
               (48,1,20)  1.365602E-02 3.150131E-02 8.524098E-01 1.352133E+00
     4265     0 05:55:25  7.884799E-02 3.850344E+01 3.858229E+01 7.793280E+05
               (48,1,20)  1.365602E-02 3.150131E-02 8.524098E-01 1.352133E+00
     4266     0 05:55:30  7.884857E-02 3.850344E+01 3.858229E+01 7.793280E+05
               (48,1,20)  1.365602E-02 3.150132E-02 8.524097E-01 1.352134E+00
     4267     0 05:55:35  7.884914E-02 3.850344E+01 3.858229E+01 7.793280E+05
               (48,1,20)  1.365602E-02 3.150132E-02 8.524097E-01 1.352135E+00
     4268     0 05:55:40  7.884972E-02 3.850344E+01 3.858229E+01 7.793280E+05
               (48,1,20)  1.365602E-02 3.150132E-02 8.524097E-01 1.352135E+00
     4269     0 05:55:45  7.885030E-02 3.850344E+01 3.858229E+01 7.793280E+05
               (48,1,20)  1.365602E-02 3.150132E-02 8.524097E-01 1.352136E+00
     4270     0 05:55:50  7.885088E-02 3.850344E+01 3.858229E+01 7.793280E+05
               (48,1,20)  1.365602E-02 3.150132E-02 8.524096E-01 1.352137E+00
     4271     0 05:55:55  7.885145E-02 3.850344E+01 3.858230E+01 7.793280E+05
               (48,1,20)  1.365602E-02 3.150132E-02 8.524096E-01 1.352137E+00
     4272     0 05:56:00  7.885203E-02 3.850344E+01 3.858230E+01 7.793280E+05
               (48,1,20)  1.365602E-02 3.150132E-02 8.524096E-01 1.352138E+00
     4273     0 05:56:05  7.885260E-02 3.850344E+01 3.858230E+01 7.793280E+05
               (48,1,20)  1.365602E-02 3.150132E-02 8.524095E-01 1.352139E+00
     4274     0 05:56:10  7.885318E-02 3.850344E+01 3.858230E+01 7.793280E+05
               (48,1,20)  1.365602E-02 3.150132E-02 8.524095E-01 1.352139E+00
     4275     0 05:56:15  7.885376E-02 3.850344E+01 3.858230E+01 7.793280E+05
               (48,1,20)  1.365602E-02 3.150132E-02 8.524095E-01 1.352140E+00
     4276     0 05:56:20  7.885433E-02 3.850344E+01 3.858230E+01 7.793280E+05
               (48,1,20)  1.365602E-02 3.150132E-02 8.524094E-01 1.352141E+00
     4277     0 05:56:25  7.885491E-02 3.850344E+01 3.858230E+01 7.793280E+05
               (48,1,20)  1.365602E-02 3.150132E-02 8.524094E-01 1.352141E+00
     4278     0 05:56:30  7.885548E-02 3.850344E+01 3.858230E+01 7.793280E+05
               (48,1,20)  1.365602E-02 3.150132E-02 8.524094E-01 1.352142E+00
     4279     0 05:56:35  7.885605E-02 3.850344E+01 3.858230E+01 7.793280E+05
               (48,1,20)  1.365602E-02 3.150132E-02 8.524093E-01 1.352143E+00
     4280     0 05:56:40  7.885663E-02 3.850344E+01 3.858230E+01 7.793280E+05
               (48,1,20)  1.365601E-02 3.150132E-02 8.524093E-01 1.352143E+00
     4281     0 05:56:45  7.885720E-02 3.850344E+01 3.858230E+01 7.793280E+05
               (48,1,20)  1.365601E-02 3.150132E-02 8.524093E-01 1.352144E+00
     4282     0 05:56:50  7.885778E-02 3.850344E+01 3.858230E+01 7.793280E+05
               (48,1,20)  1.365601E-02 3.150132E-02 8.524093E-01 1.352145E+00
     4283     0 05:56:55  7.885835E-02 3.850344E+01 3.858230E+01 7.793280E+05
               (48,1,20)  1.365601E-02 3.150132E-02 8.524092E-01 1.352145E+00
     4284     0 05:57:00  7.885892E-02 3.850344E+01 3.858230E+01 7.793280E+05
               (48,1,20)  1.365601E-02 3.150132E-02 8.524092E-01 1.352146E+00
     4285     0 05:57:05  7.885950E-02 3.850344E+01 3.858230E+01 7.793280E+05
               (48,1,20)  1.365601E-02 3.150132E-02 8.524092E-01 1.352147E+00
     4286     0 05:57:10  7.886007E-02 3.850344E+01 3.858230E+01 7.793280E+05
               (48,1,20)  1.365601E-02 3.150132E-02 8.524091E-01 1.352147E+00
     4287     0 05:57:15  7.886064E-02 3.850344E+01 3.858230E+01 7.793280E+05
               (48,1,20)  1.365601E-02 3.150132E-02 8.524091E-01 1.352148E+00
     4288     0 05:57:20  7.886121E-02 3.850344E+01 3.858230E+01 7.793280E+05
               (48,1,20)  1.365601E-02 3.150132E-02 8.524091E-01 1.352149E+00
     4289     0 05:57:25  7.886178E-02 3.850344E+01 3.858231E+01 7.793280E+05
               (48,1,20)  1.365601E-02 3.150132E-02 8.524090E-01 1.352149E+00
     4290     0 05:57:30  7.886235E-02 3.850344E+01 3.858231E+01 7.793280E+05
               (48,1,20)  1.365601E-02 3.150133E-02 8.524090E-01 1.352150E+00
     4291     0 05:57:35  7.886293E-02 3.850344E+01 3.858231E+01 7.793280E+05
               (48,1,20)  1.365601E-02 3.150133E-02 8.524090E-01 1.352151E+00
     4292     0 05:57:40  7.886350E-02 3.850344E+01 3.858231E+01 7.793280E+05
               (48,1,20)  1.365601E-02 3.150133E-02 8.524089E-01 1.352151E+00
     4293     0 05:57:45  7.886407E-02 3.850344E+01 3.858231E+01 7.793280E+05
               (48,1,20)  1.365601E-02 3.150133E-02 8.524089E-01 1.352152E+00
     4294     0 05:57:50  7.886464E-02 3.850344E+01 3.858231E+01 7.793280E+05
               (48,1,20)  1.365601E-02 3.150133E-02 8.524089E-01 1.352153E+00
     4295     0 05:57:55  7.886521E-02 3.850344E+01 3.858231E+01 7.793280E+05
               (48,1,20)  1.365601E-02 3.150133E-02 8.524089E-01 1.352153E+00
     4296     0 05:58:00  7.886578E-02 3.850344E+01 3.858231E+01 7.793280E+05
               (48,1,20)  1.365601E-02 3.150133E-02 8.524088E-01 1.352154E+00
     4297     0 05:58:05  7.886635E-02 3.850344E+01 3.858231E+01 7.793280E+05
               (48,1,20)  1.365601E-02 3.150133E-02 8.524088E-01 1.352155E+00
     4298     0 05:58:10  7.886691E-02 3.850344E+01 3.858231E+01 7.793280E+05
               (48,1,20)  1.365601E-02 3.150133E-02 8.524088E-01 1.352155E+00
     4299     0 05:58:15  7.886748E-02 3.850344E+01 3.858231E+01 7.793280E+05
               (48,1,20)  1.365601E-02 3.150133E-02 8.524087E-01 1.352156E+00
     4300     0 05:58:20  7.886805E-02 3.850344E+01 3.858231E+01 7.793280E+05
               (48,1,20)  1.365601E-02 3.150133E-02 8.524087E-01 1.352157E+00
     4301     0 05:58:25  7.886862E-02 3.850344E+01 3.858231E+01 7.793280E+05
               (48,1,20)  1.365601E-02 3.150133E-02 8.524087E-01 1.352157E+00
     4302     0 05:58:30  7.886919E-02 3.850344E+01 3.858231E+01 7.793280E+05
               (48,1,20)  1.365601E-02 3.150133E-02 8.524086E-01 1.352158E+00
     4303     0 05:58:35  7.886975E-02 3.850344E+01 3.858231E+01 7.793280E+05
               (48,1,20)  1.365601E-02 3.150133E-02 8.524086E-01 1.352159E+00
     4304     0 05:58:40  7.887032E-02 3.850344E+01 3.858231E+01 7.793280E+05
               (48,1,20)  1.365600E-02 3.150133E-02 8.524086E-01 1.352159E+00
     4305     0 05:58:45  7.887089E-02 3.850344E+01 3.858231E+01 7.793280E+05
               (48,1,20)  1.365600E-02 3.150133E-02 8.524086E-01 1.352160E+00
     4306     0 05:58:50  7.887146E-02 3.850344E+01 3.858231E+01 7.793280E+05
               (48,1,20)  1.365600E-02 3.150133E-02 8.524085E-01 1.352161E+00
     4307     0 05:58:55  7.887202E-02 3.850344E+01 3.858232E+01 7.793280E+05
               (48,1,20)  1.365600E-02 3.150133E-02 8.524085E-01 1.352161E+00
     4308     0 05:59:00  7.887259E-02 3.850344E+01 3.858232E+01 7.793280E+05
               (48,1,20)  1.365600E-02 3.150133E-02 8.524085E-01 1.352162E+00
     4309     0 05:59:05  7.887315E-02 3.850344E+01 3.858232E+01 7.793280E+05
               (48,1,20)  1.365600E-02 3.150133E-02 8.524084E-01 1.352163E+00
     4310     0 05:59:10  7.887372E-02 3.850344E+01 3.858232E+01 7.793280E+05
               (48,1,20)  1.365600E-02 3.150133E-02 8.524084E-01 1.352163E+00
     4311     0 05:59:15  7.887429E-02 3.850344E+01 3.858232E+01 7.793280E+05
               (48,1,20)  1.365600E-02 3.150133E-02 8.524084E-01 1.352164E+00
     4312     0 05:59:20  7.887485E-02 3.850344E+01 3.858232E+01 7.793280E+05
               (48,1,20)  1.365600E-02 3.150133E-02 8.524083E-01 1.352165E+00
     4313     0 05:59:25  7.887542E-02 3.850344E+01 3.858232E+01 7.793280E+05
               (48,1,20)  1.365600E-02 3.150134E-02 8.524083E-01 1.352165E+00
     4314     0 05:59:30  7.887598E-02 3.850344E+01 3.858232E+01 7.793280E+05
               (48,1,20)  1.365600E-02 3.150134E-02 8.524083E-01 1.352166E+00
     4315     0 05:59:35  7.887654E-02 3.850344E+01 3.858232E+01 7.793280E+05
               (48,1,20)  1.365600E-02 3.150134E-02 8.524082E-01 1.352166E+00
     4316     0 05:59:40  7.887711E-02 3.850344E+01 3.858232E+01 7.793280E+05
               (48,1,20)  1.365600E-02 3.150134E-02 8.524082E-01 1.352167E+00
     4317     0 05:59:45  7.887767E-02 3.850344E+01 3.858232E+01 7.793280E+05
               (48,1,20)  1.365600E-02 3.150134E-02 8.524082E-01 1.352168E+00
     4318     0 05:59:50  7.887824E-02 3.850344E+01 3.858232E+01 7.793280E+05
               (48,1,20)  1.365600E-02 3.150134E-02 8.524082E-01 1.352168E+00
     4319     0 05:59:55  7.887880E-02 3.850344E+01 3.858232E+01 7.793280E+05
               (48,1,20)  1.365600E-02 3.150134E-02 8.524081E-01 1.352169E+00
     4320     0 06:00:00  7.887936E-02 3.850344E+01 3.858232E+01 7.793280E+05
               (48,1,20)  1.365600E-02 3.150134E-02 8.524081E-01 1.352170E+00
      WRT_HIS   - wrote history  fields (Index=1,1) into time record = 0000013
      WRT_AVG   - wrote averaged fields into time record =             0000006
      WRT_RST   - wrote re-start fields (Index=1,1) into time record = 0000002

 Elapsed CPU time (seconds):

 Node   #  0 CPU:     307.906
 Node   #  1 CPU:     661.859
 Total:               969.765

 Nonlinear model elapsed time profile:

  Allocation and array initialization ..............         0.032  ( 0.0033 %)
  Reading of input data ............................         0.403  ( 0.0416 %)
  Processing of input data .........................         2.129  ( 0.2195 %)
  Processing of output time averaged data ..........         8.520  ( 0.8786 %)
  Computation of vertical boundary conditions ......         0.576  ( 0.0594 %)
  Computation of global information integrals ......         6.273  ( 0.6469 %)
  Writing of output data ...........................       376.366  (38.8100 %)
  Model 2D kernel ..................................       131.443  (13.5541 %)
  2D/3D coupling, vertical metrics .................         4.794  ( 0.4943 %)
  Omega vertical velocity ..........................         4.005  ( 0.4130 %)
  Equation of state for seawater ...................         3.074  ( 0.3170 %)
  Sediment tranport module, source/sink terms ......        15.996  ( 1.6495 %)
  My2.5 vertical mixing parameterization ...........        32.265  ( 3.3271 %)
  3D equations right-side terms ....................       102.779  (10.5983 %)
  3D equations predictor step ......................        11.553  ( 1.1913 %)
  Pressure gradient ................................         5.637  ( 0.5813 %)
  Harmonic stress tensor, S-surfaces ...............         3.906  ( 0.4028 %)
  Corrector time-step for 3D momentum ..............        14.421  ( 1.4871 %)
  Corrector time-step for tracers ..................       238.873  (24.6321 %)
                                              Total:       963.045   99.3070

 Nonlinear model message Passage profile:

  Message Passage: 2D halo exchanges ...............        38.244  ( 3.9436 %)
  Message Passage: 3D halo exchanges ...............         9.978  ( 1.0289 %)
  Message Passage: 4D halo exchanges ...............        22.809  ( 2.3520 %)
  Message Passage: data broadcast ..................       359.978  (37.1201 %)
  Message Passage: data reduction ..................         0.423  ( 0.0436 %)
  Message Passage: data gathering ..................         0.158  ( 0.0163 %)
  Message Passage: boundary data gathering .........         0.282  ( 0.0291 %)
  Message Passage: point data gathering ............         8.802  ( 0.9076 %)
                                              Total:       440.674   45.4413

 All percentages are with respect to total time =          969.765

 ROMS/TOMS - Output NetCDF summary for Grid 01:
             number of time records written in HISTORY file = 00000013
             number of time records written in RESTART file = 00000002
             number of time records written in AVERAGE file = 00000006
             number of time records written in STATION file = 00004321

 Analytical header files used:

     ROMS/Functionals/ana_btflux.h
     ROMS/Functionals/ana_fsobc.h
     ROMS/Functionals/ana_grid.h
     ROMS/Functionals/ana_initial.h
     ROMS/Functionals/ana_m2obc.h
     ROMS/Functionals/ana_mask.h
     ROMS/Functionals/ana_sediment.h
     ROMS/Functionals/ana_smflux.h
     ROMS/Functionals/ana_stflux.h

 ROMS/TOMS: DONE... Wednesday - June 29, 2011 - 12:59:42 PM
