--------------------------------------------------------------------------------
 Model Input Parameters:  ROMS/TOMS version 3.7  
                          Thursday - January 31, 2019 - 11:28:48 AM
--------------------------------------------------------------------------------

 Floats Trajectories 2D Test

 Operating system : Linux
 CPU/hardware     : x86_64
 Compiler system  : gfortran
 Compiler command : /usr/bin/gfortran
 Compiler flags   : -frepack-arrays -O3 -ffast-math -

 Git Origin URL: git@github.com:hadfieldnz/roms-trunk-mgh.git
 Git Revision  : master commit 25c99104ec433e7ee92ab833c03c63036acf7697
 Git Status    : The working tree is clean

 Host Name     : niwa-1019320.niwa.local
 Local Root    : /home/hadfield/ROMS/roms-trunk-mgh
 Header Dir    : /home/hadfield/ROMS/roms-test-mgh/flt_test
 Header file   : flt_test.h
 Analytical Dir: /home/hadfield/ROMS/roms-trunk-mgh/ROMS/Functionals

 Resolution, Grid 01: 14x12x1,  Parallel Threads: 1,  Tiling: 1x1


 Physical Parameters, Grid: 01
 =============================

       1152  ntimes            Number of timesteps for 3-D equations.
     60.000  dt                Timestep size (s) for 3-D equations.
          1  ndtfast           Number of timesteps for 2-D equations between
                                 each 3D timestep.
          1  ERstr             Starting ensemble/perturbation run number.
          1  ERend             Ending ensemble/perturbation run number.
          0  nrrec             Number of restart records to read from disk.
          T  LcycleRST         Switch to recycle time-records in restart file.
       1152  nRST              Number of timesteps between the writing of data
                                 into restart fields.
          1  ninfo             Number of timesteps between print of information
                                 to standard output.
          9  nFLT              Number of timesteps between the writing of data
                                 into floats file.
          T  ldefout           Switch to create a new output NetCDF file(s).
         18  nHIS              Number of timesteps between the writing fields
                                 into history file.
          0  nQCK              Number of timesteps between the writing fields
                                 into quicksave file.
 0.0000E+00  nl_visc2          NLM Horizontal, harmonic mixing coefficient
                                 (m2/s) for momentum.
          F  LuvSponge         Turning OFF sponge on horizontal momentum.
 3.0000E-04  rdrg              Linear bottom drag coefficient (m/s).
 3.0000E-03  rdrg2             Quadratic bottom drag coefficient.
 2.0000E-02  Zob               Bottom roughness (m).
   1025.000  rho0              Mean density (kg/m3) for Boussinesq approximation.
      0.000  dstart            Time-stamp assigned to model initialization (days).
       0.00  time_ref          Reference time for units attribute (yyyymmdd.dd)
 0.0000E+00  Znudg             Nudging/relaxation time scale (days)
                                 for free-surface.
 0.0000E+00  M2nudg            Nudging/relaxation time scale (days)
                                 for 2D momentum.
 0.0000E+00  obcfac            Factor between passive and active
                                 open boundary conditions.
          F  VolCons(1)        NLM western  edge boundary volume conservation.
          F  VolCons(2)        NLM southern edge boundary volume conservation.
          F  VolCons(3)        NLM eastern  edge boundary volume conservation.
          F  VolCons(4)        NLM northern edge boundary volume conservation.
      1.000  gamma2            Slipperiness variable: free-slip (1.0) or 
                                                      no-slip (-1.0).
          F  LuvSrc            Turning OFF momentum point Sources/Sinks.
          F  LwSrc             Turning OFF volume influx point Sources/Sinks.
          F  LsshCLM           Turning OFF processing of SSH climatology.
          F  Lm2CLM            Turning OFF processing of 2D momentum climatology.
          F  LnudgeM2CLM       Turning OFF nudging of 2D momentum climatology.

          T  Hout(idFsur)      Write out free-surface.
          T  Hout(idUbar)      Write out 2D U-momentum component.
          T  Hout(idVbar)      Write out 2D V-momentum component.

 Output/Input Files:

             Output Restart File:  ocean_rst_2d.nc
             Output History File:  ocean_his_2d.nc
              Output Floats File:  ocean_flt_2d.nc
   Initial Floats Positions File:  floats_flt_test2d.in

 Tile partition information for Grid 01:  14x12  tiling: 1x1

     tile     Istr     Iend     Jstr     Jend     Npts

        0        1       14        1       12      168

 Tile minimum and maximum fractional coordinates for Grid 01:
   (interior points only)

     tile     Xmin     Xmax     Ymin     Ymax     grid

        0    -1.50    16.50     0.50    13.50  RHO-points

        0    -2.00    16.00     0.50    13.50    U-points

        0    -1.50    16.50     0.00    13.00    V-points


 Floats Initial Locations, Grid: 01
 ==================================

               Ft0     Fx0     Fy0     Fz0      Fdt      Fdx      Fdy      Fdz

0 1  240    0.1000    0.50    0.50    1.00    0.000    0.000    0.050    0.000

        240  Nfloats         Number of float trajectories to compute.

 Lateral Boundary Conditions: NLM
 ============================

 Variable               Grid  West Edge    South Edge   East Edge    North Edge
 ---------              ----  ----------   ----------   ----------   ----------

 zeta                     1   Periodic     Closed       Periodic     Closed

 ubar                     1   Periodic     Closed       Periodic     Closed

 vbar                     1   Periodic     Closed       Periodic     Closed

 Activated C-preprocessing Options:

 FLT_TEST            Floats Trajectories 2D Test
 ANA_GRID            Analytical grid set-up.
 ANA_INITIAL         Analytical initial conditions.
 ANA_SMFLUX          Analytical kinematic surface momentum flux.
 ASSUMED_SHAPE       Using assumed-shape arrays.
 DOUBLE_PRECISION    Double precision arithmetic numerical kernel.
 FLOATS              Simulated Lagrangian drifters.
 MASKING             Land/Sea masking.
 NONLINEAR           Nonlinear Model.
 PROFILE             Time profiling activated .
 !RST_SINGLE         Double precision fields in restart NetCDF file.
 UV_ADV              Advection of momentum.
 UV_QDRAG            Quadratic bottom stress.
 UV_VIS2             Harmonic mixing of momentum.

 Process Information:

 Thread #    0 (pid=   18730) is active.

 INITIAL: Configuring and initializing forward nonlinear model ...
 *******

    ANA_GRID    - x-location of PSI-points: x_psi
                   (Grid = 01, Min =  0.00000000E+00 Max =  1.30000000E+04)
    ANA_GRID    - y-location of PSI-points: y_psi
                   (Grid = 01, Min =  0.00000000E+00 Max =  1.20000000E+04)
    ANA_GRID    - x-location of RHO-points: x_rho
                   (Grid = 01, Min =  5.00000000E+02 Max =  1.35000000E+04)
    ANA_GRID    - y-location of RHO-points: y_rho
                   (Grid = 01, Min = -5.00000000E+02 Max =  1.25000000E+04)
    ANA_GRID    - x-location of U-points: x_u
                   (Grid = 01, Min =  0.00000000E+00 Max =  1.30000000E+04)
    ANA_GRID    - y-location of U-points: y_u
                   (Grid = 01, Min = -5.00000000E+02 Max =  1.25000000E+04)
    ANA_GRID    - x-location of V-points: x_v
                   (Grid = 01, Min =  5.00000000E+02 Max =  1.35000000E+04)
    ANA_GRID    - y-location of V-points: y_v
                   (Grid = 01, Min =  0.00000000E+00 Max =  1.20000000E+04)
    ANA_GRID    - reciprocal XI-grid spacing: pm
                   (Grid = 01, Min =  1.00000000E-03 Max =  1.00000000E-03)
    ANA_GRID    - reciprocal ETA-grid spacing: pn
                   (Grid = 01, Min =  1.00000000E-03 Max =  1.00000000E-03)
    ANA_GRID    - angle between XI-axis and EAST: angler
                   (Grid = 01, Min =  0.00000000E+00 Max =  0.00000000E+00)
    ANA_GRID    - Coriolis parameter at RHO-points: f
                   (Grid = 01, Min =  0.00000000E+00 Max =  0.00000000E+00)
    ANA_GRID    - bathymetry at RHO-points: h
                   (Grid = 01, Min =  1.00000000E+01 Max =  1.00000000E+01)
    ANA_MASK    - mask on PSI-points: mask_psi
                   (Grid = 01, Min =  0.00000000E+00 Max =  1.00000000E+00)
    ANA_MASK    - mask on RHO-points: mask_rho
                   (Grid = 01, Min =  0.00000000E+00 Max =  1.00000000E+00)
    ANA_MASK    - mask on U-points: mask_u
                   (Grid = 01, Min =  0.00000000E+00 Max =  1.00000000E+00)
    ANA_MASK    - mask on V-points: mask_v
                   (Grid = 01, Min =  0.00000000E+00 Max =  1.00000000E+00)

 Metrics information for Grid 01:
 ===============================

 Minimum X-grid spacing, DXmin =  1.00000000E+00 km
 Maximum X-grid spacing, DXmax =  1.00000000E+00 km
 Minimum Y-grid spacing, DYmin =  1.00000000E+00 km
 Maximum Y-grid spacing, DYmax =  1.00000000E+00 km

 Minimum barotropic Courant Number =  8.40428462E-01
 Maximum barotropic Courant Number =  8.40428462E-01
 Maximum Coriolis   Courant Number =  0.00000000E+00

    ANA_INITIAL - vertically integrated u-momentum component: ubar
                   (Grid = 01, Min =  0.00000000E+00 Max =  0.00000000E+00)
    ANA_INITIAL - vertically integrated v-momentum component: vbar
                   (Grid = 01, Min =  0.00000000E+00 Max =  0.00000000E+00)
    ANA_INITIAL - free-surface: zeta
                   (Grid = 01, Min =  0.00000000E+00 Max =  0.00000000E+00)

 Basin information for Grid 01:


 Initial domain volumes:  TotVolume =  1.3600000000E+09 m3
                         MinCellVol =  1.0000000000E+07 m3
                         MaxCellVol =  1.0000000000E+07 m3
                            Max/Min =  1.0000000000E+00

 NL ROMS/TOMS: started time-stepping: (Grid: 01 TimeSteps: 000000000001 - 000000001152)


 TIME-STEP YYYY-MM-DD hh:mm:ss.ss  KINETIC_ENRG   POTEN_ENRG    TOTAL_ENRG    NET_VOLUME
                       C => (i,j)       Cu            Cv           C Max       Max Speed

         0 0001-01-01 00:00:00.00  0.000000E+00  0.000000E+00  0.000000E+00  1.680000E+09
                          (00,00)  0.000000E+00  0.000000E+00  0.000000E+00  0.000000E+00
      DEF_HIS     - creating  history      file, Grid 01: ocean_his_2d.nc
      WRT_HIS     - wrote history     fields (Index=1)   in record = 0000001
      DEF_FLOATS  - creating  floats       file, Grid 01: ocean_flt_2d.nc
      DEF_RST   - creating restart file: ocean_rst_2d.nc
         1 0001-01-01 00:01:00.00  1.435714E-05  0.000000E+00  1.435714E-05  1.680000E+09
                          (01,02)  3.600000E-04  0.000000E+00  3.600000E-04  6.000000E-03
         2 0001-01-01 00:02:00.00  5.664063E-05  2.910623E-07  5.693169E-05  1.680000E+09
                          (09,05)  7.199492E-04  1.127639E-04  8.327130E-04  1.225801E-02
         3 0001-01-01 00:03:00.00  1.267550E-04  1.380001E-06  1.281350E-04  1.680000E+09
                          (09,05)  1.083594E-03  2.583478E-04  1.341942E-03  1.884973E-02
         4 0001-01-01 00:04:00.00  2.244494E-04  2.357680E-06  2.268070E-04  1.680000E+09
                          (09,05)  1.458884E-03  4.156720E-04  1.874556E-03  2.618554E-02
         5 0001-01-01 00:05:00.00  3.495558E-04  3.525521E-06  3.530813E-04  1.680000E+09
                          (09,05)  1.854905E-03  6.026248E-04  2.457530E-03  3.409679E-02
         6 0001-01-01 00:06:00.00  5.020429E-04  4.701519E-06  5.067444E-04  1.680000E+09
                          (09,05)  2.270076E-03  7.846723E-04  3.054749E-03  4.249165E-02
         7 0001-01-01 00:07:00.00  6.818307E-04  5.776734E-06  6.876074E-04  1.680000E+09
                          (09,05)  2.701697E-03  9.572000E-04  3.658897E-03  5.107717E-02
         8 0001-01-01 00:08:00.00  8.887968E-04  6.726251E-06  8.955230E-04  1.680000E+09
                          (09,05)  3.143310E-03  1.120602E-03  4.263913E-03  5.966172E-02
         9 0001-01-01 00:09:00.00  1.122771E-03  7.554926E-06  1.130326E-03  1.680000E+09
                          (09,05)  3.588818E-03  1.277456E-03  4.866275E-03  6.814652E-02
        10 0001-01-01 00:10:00.00  1.383560E-03  8.282045E-06  1.391842E-03  1.680000E+09
                          (09,05)  4.033426E-03  1.431496E-03  5.464922E-03  7.649488E-02
        11 0001-01-01 00:11:00.00  1.670999E-03  8.881592E-06  1.679881E-03  1.680000E+09
                          (09,05)  4.473313E-03  1.583254E-03  6.056567E-03  8.474217E-02
        12 0001-01-01 00:12:00.00  1.984972E-03  9.258631E-06  1.994231E-03  1.680000E+09
                          (09,08)  4.907647E-03  1.729792E-03  6.637439E-03  9.292439E-02
        13 0001-01-01 00:13:00.00  2.325348E-03  9.305718E-06  2.334653E-03  1.680000E+09
                          (09,05)  5.337814E-03  1.869109E-03  7.206923E-03  1.010563E-01
        14 0001-01-01 00:14:00.00  2.691927E-03  8.956986E-06  2.700884E-03  1.680000E+09
                          (09,08)  5.765735E-03  2.002283E-03  7.768019E-03  1.091417E-01
        15 0001-01-01 00:15:00.00  3.084421E-03  8.199837E-06  3.092621E-03  1.680000E+09
                          (09,05)  6.192489E-03  2.132619E-03  8.325109E-03  1.171913E-01
        16 0001-01-01 00:16:00.00  3.502415E-03  7.121914E-06  3.509537E-03  1.680000E+09
                          (09,05)  6.617855E-03  2.263422E-03  8.881277E-03  1.252248E-01
        17 0001-01-01 00:17:00.00  3.945338E-03  5.949381E-06  3.951287E-03  1.680000E+09
                          (09,05)  7.040627E-03  2.396686E-03  9.437313E-03  1.332501E-01
        18 0001-01-01 00:18:00.00  4.412582E-03  4.927606E-06  4.417510E-03  1.680000E+09
                          (09,05)  7.458848E-03  2.533251E-03  9.992099E-03  1.412433E-01
      WRT_HIS     - wrote history     fields (Index=1)   in record = 0000002
        19 0001-01-01 00:19:00.00  4.903667E-03  4.154617E-06  4.907822E-03  1.680000E+09
                          (09,05)  7.870079E-03  2.672917E-03  1.054300E-02  1.491468E-01
        20 0001-01-01 00:20:00.00  5.418261E-03  3.573505E-06  5.421834E-03  1.680000E+09
                          (09,05)  8.272020E-03  2.814206E-03  1.108623E-02  1.568856E-01
        21 0001-01-01 00:21:00.00  5.956098E-03  3.070428E-06  5.959168E-03  1.680000E+09
                          (06,05)  8.538426E-03  3.081399E-03  1.161982E-02  1.643889E-01
        22 0001-01-01 00:22:00.00  6.516895E-03  2.564240E-06  6.519459E-03  1.680000E+09
                          (06,05)  8.904358E-03  3.239006E-03  1.214336E-02  1.716042E-01
        23 0001-01-01 00:23:00.00  7.100290E-03  2.058258E-06  7.102348E-03  1.680000E+09
                          (06,08)  9.262091E-03  3.393136E-03  1.265523E-02  1.785044E-01
        24 0001-01-01 00:24:00.00  7.705858E-03  1.613535E-06  7.707471E-03  1.680000E+09
                          (06,05)  9.613210E-03  3.543431E-03  1.315664E-02  1.850910E-01
        25 0001-01-01 00:25:00.00  8.333174E-03  1.261632E-06  8.334436E-03  1.680000E+09
                          (06,05)  9.958188E-03  3.689983E-03  1.364817E-02  1.914003E-01
        26 0001-01-01 00:26:00.00  8.981818E-03  9.905363E-07  8.982808E-03  1.680000E+09
                          (06,05)  1.029657E-02  3.831627E-03  1.412820E-02  1.975065E-01
        27 0001-01-01 00:27:00.00  9.651293E-03  8.315390E-07  9.652125E-03  1.680000E+09
                          (06,05)  1.062811E-02  3.965242E-03  1.459335E-02  2.035165E-01
        28 0001-01-01 00:28:00.00  1.034100E-02  8.909922E-07  1.034189E-02  1.680000E+09
                          (06,08)  1.095396E-02  4.087283E-03  1.504125E-02  2.095543E-01
        29 0001-01-01 00:29:00.00  1.105033E-02  1.261979E-06  1.105159E-02  1.680000E+09
                          (06,05)  1.127719E-02  4.197005E-03  1.547420E-02  2.157387E-01
        30 0001-01-01 00:30:00.00  1.177869E-02  1.951218E-06  1.178064E-02  1.680000E+09
                          (06,05)  1.160230E-02  4.299299E-03  1.590160E-02  2.221617E-01
        31 0001-01-01 00:31:00.00  1.252551E-02  2.929486E-06  1.252844E-02  1.680000E+09
                          (06,05)  1.193423E-02  4.404857E-03  1.633909E-02  2.288761E-01
        32 0001-01-01 00:32:00.00  1.329011E-02  4.214041E-06  1.329433E-02  1.680000E+09
                          (06,05)  1.227718E-02  4.526786E-03  1.680396E-02  2.358945E-01
        33 0001-01-01 00:33:00.00  1.407177E-02  5.825144E-06  1.407760E-02  1.680000E+09
                          (06,05)  1.263328E-02  4.675144E-03  1.730842E-02  2.431995E-01
        34 0001-01-01 00:34:00.00  1.486988E-02  7.643679E-06  1.487752E-02  1.680000E+09
                          (06,05)  1.300179E-02  4.852441E-03  1.785423E-02  2.507545E-01
        35 0001-01-01 00:35:00.00  1.568400E-02  9.367368E-06  1.569337E-02  1.680000E+09
                          (06,08)  1.337924E-02  5.052821E-03  1.843207E-02  2.585052E-01
        36 0001-01-01 00:36:00.00  1.651379E-02  1.064407E-05  1.652444E-02  1.680000E+09
                          (06,05)  1.376070E-02  5.265152E-03  1.902585E-02  2.663711E-01
      WRT_HIS     - wrote history     fields (Index=1)   in record = 0000003
        37 0001-01-01 00:37:00.00  1.735887E-02  1.124154E-05  1.737011E-02  1.680000E+09
                          (06,05)  1.414139E-02  5.477716E-03  1.961911E-02  2.742403E-01
        38 0001-01-01 00:38:00.00  1.821869E-02  1.112202E-05  1.822981E-02  1.680000E+09
                          (06,05)  1.451766E-02  5.681586E-03  2.019924E-02  2.819837E-01
        39 0001-01-01 00:39:00.00  1.909258E-02  1.042294E-05  1.910300E-02  1.680000E+09
                          (06,05)  1.488677E-02  5.871436E-03  2.075820E-02  2.894895E-01
        40 0001-01-01 00:40:00.00  1.997979E-02  9.373721E-06  1.998916E-02  1.680000E+09
                          (06,05)  1.524623E-02  6.044752E-03  2.129098E-02  2.966990E-01
        41 0001-01-01 00:41:00.00  2.087960E-02  8.182687E-06  2.088778E-02  1.680000E+09
                          (06,05)  1.559352E-02  6.201175E-03  2.179470E-02  3.036205E-01
        42 0001-01-01 00:42:00.00  2.179137E-02  6.970343E-06  2.179834E-02  1.680000E+09
                          (06,08)  1.592643E-02  6.342745E-03  2.226917E-02  3.103104E-01
        43 0001-01-01 00:43:00.00  2.271452E-02  5.793219E-06  2.272031E-02  1.680000E+09
                          (06,05)  1.624373E-02  6.474416E-03  2.271814E-02  3.168320E-01
        44 0001-01-01 00:44:00.00  2.364845E-02  4.705929E-06  2.365316E-02  1.680000E+09
                          (06,05)  1.654578E-02  6.603675E-03  2.314946E-02  3.232167E-01
        45 0001-01-01 00:45:00.00  2.459255E-02  3.786034E-06  2.459634E-02  1.680000E+09
                          (06,05)  1.683468E-02  6.738698E-03  2.357338E-02  3.294463E-01
        46 0001-01-01 00:46:00.00  2.554620E-02  3.110314E-06  2.554931E-02  1.680000E+09
                          (06,08)  1.711393E-02  6.885612E-03  2.399954E-02  3.354671E-01
        47 0001-01-01 00:47:00.00  2.650879E-02  2.722146E-06  2.651151E-02  1.680000E+09
                          (06,05)  1.738770E-02  7.046161E-03  2.443386E-02  3.412257E-01
        48 0001-01-01 00:48:00.00  2.747980E-02  2.611746E-06  2.748241E-02  1.680000E+09
                          (06,05)  1.765975E-02  7.217129E-03  2.487688E-02  3.467050E-01
        49 0001-01-01 00:49:00.00  2.845879E-02  2.699426E-06  2.846149E-02  1.680000E+09
                          (06,05)  1.793234E-02  7.392025E-03  2.532437E-02  3.519398E-01
        50 0001-01-01 00:50:00.00  2.944540E-02  2.839572E-06  2.944824E-02  1.680000E+09
                          (06,05)  1.820580E-02  7.564316E-03  2.577012E-02  3.570037E-01
        51 0001-01-01 00:51:00.00  3.043923E-02  2.891128E-06  3.044212E-02  1.680000E+09
                          (06,05)  1.847858E-02  7.730521E-03  2.620910E-02  3.619819E-01
        52 0001-01-01 00:52:00.00  3.143979E-02  2.830010E-06  3.144262E-02  1.680000E+09
                          (06,05)  1.874801E-02  7.891405E-03  2.663941E-02  3.669481E-01
        53 0001-01-01 00:53:00.00  3.244636E-02  2.790105E-06  3.244915E-02  1.680000E+09
                          (06,05)  1.901117E-02  8.050622E-03  2.706179E-02  3.719600E-01
        54 0001-01-01 00:54:00.00  3.345815E-02  2.968979E-06  3.346112E-02  1.680000E+09
                          (06,05)  1.926600E-02  8.211692E-03  2.747769E-02  3.770644E-01
      WRT_HIS     - wrote history     fields (Index=1)   in record = 0000004
        55 0001-01-01 00:55:00.00  3.447442E-02  3.481081E-06  3.447790E-02  1.680000E+09
                          (06,05)  1.951223E-02  8.375284E-03  2.788751E-02  3.822978E-01
        56 0001-01-01 00:56:00.00  3.549456E-02  4.295691E-06  3.549886E-02  1.680000E+09
                          (06,05)  1.975197E-02  8.538528E-03  2.829050E-02  3.876751E-01
        57 0001-01-01 00:57:00.00  3.651809E-02  5.298568E-06  3.652338E-02  1.680000E+09
                          (06,05)  1.998963E-02  8.696809E-03  2.868644E-02  3.931742E-01
        58 0001-01-01 00:58:00.00  3.754451E-02  6.394514E-06  3.755090E-02  1.680000E+09
                          (06,05)  2.023076E-02  8.846970E-03  2.907773E-02  3.987352E-01
        59 0001-01-01 00:59:00.00  3.857333E-02  7.551053E-06  3.858088E-02  1.680000E+09
                          (06,05)  2.048026E-02  8.990063E-03  2.947032E-02  4.042825E-01
        60 0001-01-01 01:00:00.00  3.960403E-02  8.761536E-06  3.961279E-02  1.680000E+09
                          (06,05)  2.074060E-02  9.132075E-03  2.987267E-02  4.097615E-01
        61 0001-01-01 01:01:00.00  4.063614E-02  9.981953E-06  4.064612E-02  1.680000E+09
                          (06,05)  2.101076E-02  9.282137E-03  3.029289E-02  4.151700E-01
        62 0001-01-01 01:02:00.00  4.166924E-02  1.110223E-05  4.168034E-02  1.680000E+09
                          (06,05)  2.128663E-02  9.449001E-03  3.073563E-02  4.205616E-01
        63 0001-01-01 01:03:00.00  4.270292E-02  1.196665E-05  4.271488E-02  1.680000E+09
                          (06,05)  2.156255E-02  9.637341E-03  3.119990E-02  4.260169E-01
        64 0001-01-01 01:04:00.00  4.373676E-02  1.241995E-05  4.374918E-02  1.680000E+09
                          (06,05)  2.183334E-02  9.845537E-03  3.167888E-02  4.315953E-01
        65 0001-01-01 01:05:00.00  4.477033E-02  1.235527E-05  4.478269E-02  1.680000E+09
                          (06,05)  2.209576E-02  1.006592E-02  3.216168E-02  4.372933E-01
        66 0001-01-01 01:06:00.00  4.580312E-02  1.175321E-05  4.581488E-02  1.680000E+09
                          (06,05)  2.234888E-02  1.028735E-02  3.263623E-02  4.430288E-01
        67 0001-01-01 01:07:00.00  4.683461E-02  1.070181E-05  4.684531E-02  1.680000E+09
                          (06,05)  2.259319E-02  1.049896E-02  3.309215E-02  4.486589E-01
        68 0001-01-01 01:08:00.00  4.786427E-02  9.382052E-06  4.787365E-02  1.680000E+09
                          (06,05)  2.282931E-02  1.069342E-02  3.352273E-02  4.540205E-01
        69 0001-01-01 01:09:00.00  4.889159E-02  8.013266E-06  4.889961E-02  1.680000E+09
                          (06,05)  2.305708E-02  1.086841E-02  3.392549E-02  4.589763E-01
        70 0001-01-01 01:10:00.00  4.991619E-02  6.779394E-06  4.992297E-02  1.680000E+09
                          (06,05)  2.327552E-02  1.102599E-02  3.430151E-02  4.634468E-01
        71 0001-01-01 01:11:00.00  5.093778E-02  5.777956E-06  5.094356E-02  1.680000E+09
                          (06,05)  2.348356E-02  1.117073E-02  3.465429E-02  4.674242E-01
        72 0001-01-01 01:12:00.00  5.195615E-02  5.023482E-06  5.196117E-02  1.680000E+09
                          (06,05)  2.368099E-02  1.130774E-02  3.498873E-02  4.709673E-01
      WRT_HIS     - wrote history     fields (Index=1)   in record = 0000005
        73 0001-01-01 01:13:00.00  5.297110E-02  4.497099E-06  5.297559E-02  1.680000E+09
                          (06,05)  2.386897E-02  1.144168E-02  3.531065E-02  4.741834E-01
        74 0001-01-01 01:14:00.00  5.398239E-02  4.196897E-06  5.398659E-02  1.680000E+09
                          (06,05)  2.404985E-02  1.157681E-02  3.562666E-02  4.772042E-01
        75 0001-01-01 01:15:00.00  5.498971E-02  4.145509E-06  5.499385E-02  1.680000E+09
                          (06,05)  2.422647E-02  1.171743E-02  3.594390E-02  4.801605E-01
        76 0001-01-01 01:16:00.00  5.599271E-02  4.355122E-06  5.599706E-02  1.680000E+09
                          (06,08)  2.440138E-02  1.186776E-02  3.626914E-02  4.831607E-01
        77 0001-01-01 01:17:00.00  5.699105E-02  4.793672E-06  5.699584E-02  1.680000E+09
                          (06,08)  2.457632E-02  1.203099E-02  3.660732E-02  4.862781E-01
        78 0001-01-01 01:18:00.00  5.798441E-02  5.389712E-06  5.798980E-02  1.680000E+09
                          (06,05)  2.475206E-02  1.220788E-02  3.695994E-02  4.895471E-01
        79 0001-01-01 01:19:00.00  5.897247E-02  6.065959E-06  5.897853E-02  1.680000E+09
                          (06,05)  2.492862E-02  1.239571E-02  3.732433E-02  4.929680E-01
        80 0001-01-01 01:20:00.00  5.995488E-02  6.766637E-06  5.996165E-02  1.680000E+09
                          (06,08)  2.510567E-02  1.258847E-02  3.769415E-02  4.965149E-01
        81 0001-01-01 01:21:00.00  6.093131E-02  7.467237E-06  6.093877E-02  1.680000E+09
                          (06,05)  2.528289E-02  1.277837E-02  3.806126E-02  5.001453E-01
        82 0001-01-01 01:22:00.00  6.190142E-02  8.177954E-06  6.190959E-02  1.680000E+09
                          (06,08)  2.546011E-02  1.295819E-02  3.841830E-02  5.038085E-01
        83 0001-01-01 01:23:00.00  6.286488E-02  8.938199E-06  6.287382E-02  1.680000E+09
                          (06,05)  2.563733E-02  1.312358E-02  3.876090E-02  5.074542E-01
        84 0001-01-01 01:24:00.00  6.382141E-02  9.786659E-06  6.383120E-02  1.680000E+09
                          (06,08)  2.581451E-02  1.327438E-02  3.908888E-02  5.110423E-01
        85 0001-01-01 01:25:00.00  6.477078E-02  1.071575E-05  6.478150E-02  1.680000E+09
                          (06,05)  2.599145E-02  1.341455E-02  3.940600E-02  5.145504E-01
        86 0001-01-01 01:26:00.00  6.571284E-02  1.164954E-05  6.572449E-02  1.680000E+09
                          (06,08)  2.616775E-02  1.355071E-02  3.971846E-02  5.179779E-01
        87 0001-01-01 01:27:00.00  6.664748E-02  1.247247E-05  6.665995E-02  1.680000E+09
                          (06,08)  2.634313E-02  1.368985E-02  4.003297E-02  5.213405E-01
        88 0001-01-01 01:28:00.00  6.757456E-02  1.308984E-05  6.758765E-02  1.680000E+09
                          (06,05)  2.651762E-02  1.383723E-02  4.035485E-02  5.246601E-01
        89 0001-01-01 01:29:00.00  6.849389E-02  1.347058E-05  6.850736E-02  1.680000E+09
                          (06,08)  2.669175E-02  1.399509E-02  4.068685E-02  5.279526E-01
        90 0001-01-01 01:30:00.00  6.940522E-02  1.363882E-05  6.941886E-02  1.680000E+09
                          (06,08)  2.686624E-02  1.416263E-02  4.102886E-02  5.312209E-01
      WRT_HIS     - wrote history     fields (Index=1)   in record = 0000006
        91 0001-01-01 01:31:00.00  7.030834E-02  1.362881E-05  7.032197E-02  1.680000E+09
                          (06,05)  2.704137E-02  1.433690E-02  4.137828E-02  5.344544E-01
        92 0001-01-01 01:32:00.00  7.120306E-02  1.344971E-05  7.121651E-02  1.680000E+09
                          (06,08)  2.721652E-02  1.451426E-02  4.173078E-02  5.376332E-01
        93 0001-01-01 01:33:00.00  7.208926E-02  1.309136E-05  7.210235E-02  1.680000E+09
                          (06,08)  2.738997E-02  1.469141E-02  4.208138E-02  5.407319E-01
        94 0001-01-01 01:34:00.00  7.296684E-02  1.255740E-05  7.297940E-02  1.680000E+09
                          (06,08)  2.755943E-02  1.486582E-02  4.242525E-02  5.437186E-01
        95 0001-01-01 01:35:00.00  7.383568E-02  1.188731E-05  7.384757E-02  1.680000E+09
                          (06,08)  2.772289E-02  1.503558E-02  4.275847E-02  5.465527E-01
        96 0001-01-01 01:36:00.00  7.469571E-02  1.114798E-05  7.470685E-02  1.680000E+09
                          (06,05)  2.787944E-02  1.519898E-02  4.307843E-02  5.491834E-01
        97 0001-01-01 01:37:00.00  7.554684E-02  1.040777E-05  7.555725E-02  1.680000E+09
                          (06,05)  2.802947E-02  1.535432E-02  4.338379E-02  5.515565E-01
        98 0001-01-01 01:38:00.00  7.638908E-02  9.715923E-06  7.639880E-02  1.680000E+09
                          (06,05)  2.817423E-02  1.550009E-02  4.367432E-02  5.536292E-01
        99 0001-01-01 01:39:00.00  7.722244E-02  9.098224E-06  7.723153E-02  1.680000E+09
                          (06,08)  2.831496E-02  1.563554E-02  4.395050E-02  5.555814E-01
       100 0001-01-01 01:40:00.00  7.804695E-02  8.568057E-06  7.805551E-02  1.680000E+09
                          (06,05)  2.845198E-02  1.576124E-02  4.421322E-02  5.575349E-01
       101 0001-01-01 01:41:00.00  7.886262E-02  8.146042E-06  7.887076E-02  1.680000E+09
                          (06,05)  2.858448E-02  1.587925E-02  4.446372E-02  5.592902E-01
       102 0001-01-01 01:42:00.00  7.966940E-02  7.875305E-06  7.967728E-02  1.680000E+09
                          (06,08)  2.871088E-02  1.599292E-02  4.470381E-02  5.609768E-01
       103 0001-01-01 01:43:00.00  8.046718E-02  7.819657E-06  8.047500E-02  1.680000E+09
                          (06,05)  2.882990E-02  1.610623E-02  4.493612E-02  5.634762E-01
       104 0001-01-01 01:44:00.00  8.125581E-02  8.043571E-06  8.126385E-02  1.680000E+09
                          (06,08)  2.894154E-02  1.622285E-02  4.516439E-02  5.660621E-01
       105 0001-01-01 01:45:00.00  8.203511E-02  8.585260E-06  8.204369E-02  1.680000E+09
                          (06,08)  2.904775E-02  1.634546E-02  4.539320E-02  5.686248E-01
       106 0001-01-01 01:46:00.00  8.280494E-02  9.435668E-06  8.281437E-02  1.680000E+09
                          (06,05)  2.915215E-02  1.647520E-02  4.562734E-02  5.712310E-01
       107 0001-01-01 01:47:00.00  8.356520E-02  1.053082E-05  8.357573E-02  1.680000E+09
                          (06,08)  2.925920E-02  1.661158E-02  4.587078E-02  5.739449E-01
       108 0001-01-01 01:48:00.00  8.431585E-02  1.176012E-05  8.432761E-02  1.680000E+09
                          (06,05)  2.937288E-02  1.675268E-02  4.612556E-02  5.768086E-01
      WRT_HIS     - wrote history     fields (Index=1)   in record = 0000007
       109 0001-01-01 01:49:00.00  8.505691E-02  1.298820E-05  8.506989E-02  1.680000E+09
                          (06,08)  2.949548E-02  1.689555E-02  4.639103E-02  5.798286E-01
       110 0001-01-01 01:50:00.00  8.578840E-02  1.408300E-05  8.580248E-02  1.680000E+09
                          (06,08)  2.962700E-02  1.703675E-02  4.666375E-02  5.829714E-01
       111 0001-01-01 01:51:00.00  8.651039E-02  1.494354E-05  8.652533E-02  1.680000E+09
                          (06,08)  2.976511E-02  1.717299E-02  4.693810E-02  5.861703E-01
       112 0001-01-01 01:52:00.00  8.722290E-02  1.552256E-05  8.723842E-02  1.680000E+09
                          (06,08)  2.990586E-02  1.730174E-02  4.720760E-02  5.893418E-01
       113 0001-01-01 01:53:00.00  8.792593E-02  1.583636E-05  8.794177E-02  1.680000E+09
                          (06,08)  3.004466E-02  1.742172E-02  4.746637E-02  5.924061E-01
       114 0001-01-01 01:54:00.00  8.861946E-02  1.595165E-05  8.863541E-02  1.680000E+09
                          (06,08)  3.017749E-02  1.753318E-02  4.771067E-02  5.953062E-01
       115 0001-01-01 01:55:00.00  8.930345E-02  1.595172E-05  8.931940E-02  1.680000E+09
                          (06,05)  3.030188E-02  1.763788E-02  4.793976E-02  5.980216E-01
       116 0001-01-01 01:56:00.00  8.997787E-02  1.590252E-05  8.999377E-02  1.680000E+09
                          (06,08)  3.041756E-02  1.773863E-02  4.815618E-02  6.005736E-01
       117 0001-01-01 01:57:00.00  9.064273E-02  1.584036E-05  9.065857E-02  1.680000E+09
                          (06,08)  3.052654E-02  1.783862E-02  4.836516E-02  6.030200E-01
       118 0001-01-01 01:58:00.00  9.129805E-02  1.578117E-05  9.131383E-02  1.680000E+09
                          (06,08)  3.063256E-02  1.794073E-02  4.857329E-02  6.054409E-01
       119 0001-01-01 01:59:00.00  9.194388E-02  1.573127E-05  9.195962E-02  1.680000E+09
                          (06,08)  3.073999E-02  1.804688E-02  4.878687E-02  6.079173E-01
       120 0001-01-01 02:00:00.00  9.258029E-02  1.568410E-05  9.259597E-02  1.680000E+09
                          (06,08)  3.085239E-02  1.815773E-02  4.901012E-02  6.105078E-01
       121 0001-01-01 02:01:00.00  9.320737E-02  1.560818E-05  9.322298E-02  1.680000E+09
                          (06,05)  3.097130E-02  1.827259E-02  4.924389E-02  6.132297E-01
       122 0001-01-01 02:02:00.00  9.382529E-02  1.544451E-05  9.384074E-02  1.680000E+09
                          (06,08)  3.109559E-02  1.838956E-02  4.948514E-02  6.160500E-01
       123 0001-01-01 02:03:00.00  9.443422E-02  1.512544E-05  9.444935E-02  1.680000E+09
                          (06,08)  3.122162E-02  1.850587E-02  4.972749E-02  6.188909E-01
       124 0001-01-01 02:04:00.00  9.503432E-02  1.461008E-05  9.504893E-02  1.680000E+09
                          (06,08)  3.134435E-02  1.861833E-02  4.996268E-02  6.216491E-01
       125 0001-01-01 02:05:00.00  9.562570E-02  1.391731E-05  9.563962E-02  1.680000E+09
                          (06,05)  3.145879E-02  1.872386E-02  5.018265E-02  6.242227E-01
       126 0001-01-01 02:06:00.00  9.620839E-02  1.313556E-05  9.622153E-02  1.680000E+09
                          (06,08)  3.156144E-02  1.882014E-02  5.038158E-02  6.265389E-01
      WRT_HIS     - wrote history     fields (Index=1)   in record = 0000008
       127 0001-01-01 02:07:00.00  9.678239E-02  1.240076E-05  9.679479E-02  1.680000E+09
                          (06,05)  3.165121E-02  1.890620E-02  5.055741E-02  6.285735E-01
       128 0001-01-01 02:08:00.00  9.734764E-02  1.185189E-05  9.735950E-02  1.680000E+09
                          (06,08)  3.172951E-02  1.898266E-02  5.071216E-02  6.303549E-01
       129 0001-01-01 02:09:00.00  9.790416E-02  1.158644E-05  9.791575E-02  1.680000E+09
                          (06,08)  3.179959E-02  1.905166E-02  5.085125E-02  6.319538E-01
       130 0001-01-01 02:10:00.00  9.845198E-02  1.163745E-05  9.846362E-02  1.680000E+09
                          (06,08)  3.186552E-02  1.911628E-02  5.098181E-02  6.334609E-01
       131 0001-01-01 02:11:00.00  9.899117E-02  1.198035E-05  9.900315E-02  1.680000E+09
                          (06,08)  3.193109E-02  1.917970E-02  5.111079E-02  6.349627E-01
       132 0001-01-01 02:12:00.00  9.952182E-02  1.255982E-05  9.953438E-02  1.680000E+09
                          (06,08)  3.199906E-02  1.924436E-02  5.124342E-02  6.365213E-01
       133 0001-01-01 02:13:00.00  1.000440E-01  1.331681E-05  1.000573E-01  1.680000E+09
                          (06,08)  3.207091E-02  1.931152E-02  5.138243E-02  6.381676E-01
       134 0001-01-01 02:14:00.00  1.005578E-01  1.420024E-05  1.005720E-01  1.680000E+09
                          (06,05)  3.214703E-02  1.938132E-02  5.152834E-02  6.399041E-01
       135 0001-01-01 02:15:00.00  1.010632E-01  1.516221E-05  1.010783E-01  1.680000E+09
                          (06,05)  3.222709E-02  1.945323E-02  5.168033E-02  6.417179E-01
       136 0001-01-01 02:16:00.00  1.015602E-01  1.614762E-05  1.015764E-01  1.680000E+09
                          (06,05)  3.231046E-02  1.952677E-02  5.183723E-02  6.435924E-01
       137 0001-01-01 02:17:00.00  1.020491E-01  1.709103E-05  1.020662E-01  1.680000E+09
                          (06,05)  3.239643E-02  1.960183E-02  5.199826E-02  6.455157E-01
       138 0001-01-01 02:18:00.00  1.025298E-01  1.792508E-05  1.025477E-01  1.680000E+09
                          (06,08)  3.248429E-02  1.967866E-02  5.216295E-02  6.474810E-01
       139 0001-01-01 02:19:00.00  1.030024E-01  1.859562E-05  1.030210E-01  1.680000E+09
                          (06,08)  3.257329E-02  1.975737E-02  5.233067E-02  6.494798E-01
       140 0001-01-01 02:20:00.00  1.034670E-01  1.907377E-05  1.034861E-01  1.680000E+09
                          (06,08)  3.266262E-02  1.983729E-02  5.249991E-02  6.514959E-01
       141 0001-01-01 02:21:00.00  1.039237E-01  1.935832E-05  1.039431E-01  1.680000E+09
                          (06,05)  3.275143E-02  1.991656E-02  5.266799E-02  6.535007E-01
       142 0001-01-01 02:22:00.00  1.043727E-01  1.946833E-05  1.043921E-01  1.680000E+09
                          (06,08)  3.283894E-02  1.999233E-02  5.283127E-02  6.554566E-01
       143 0001-01-01 02:23:00.00  1.048138E-01  1.943121E-05  1.048333E-01  1.680000E+09
                          (06,05)  3.292455E-02  2.006157E-02  5.298612E-02  6.573260E-01
       144 0001-01-01 02:24:00.00  1.052474E-01  1.927246E-05  1.052667E-01  1.680000E+09
                          (06,05)  3.300787E-02  2.012213E-02  5.313000E-02  6.590827E-01
      WRT_HIS     - wrote history     fields (Index=1)   in record = 0000009
       145 0001-01-01 02:25:00.00  1.056735E-01  1.901138E-05  1.056925E-01  1.680000E+09
                          (06,05)  3.308877E-02  2.017373E-02  5.326250E-02  6.607206E-01
       146 0001-01-01 02:26:00.00  1.060922E-01  1.866442E-05  1.061108E-01  1.680000E+09
                          (06,08)  3.316724E-02  2.021831E-02  5.338554E-02  6.622569E-01
       147 0001-01-01 02:27:00.00  1.065037E-01  1.825302E-05  1.065219E-01  1.680000E+09
                          (06,08)  3.324331E-02  2.025956E-02  5.350287E-02  6.637262E-01
       148 0001-01-01 02:28:00.00  1.069081E-01  1.780793E-05  1.069259E-01  1.680000E+09
                          (06,08)  3.331699E-02  2.030182E-02  5.361881E-02  6.651687E-01
       149 0001-01-01 02:29:00.00  1.073055E-01  1.736314E-05  1.073228E-01  1.680000E+09
                          (06,08)  3.338818E-02  2.034866E-02  5.373684E-02  6.666165E-01
       150 0001-01-01 02:30:00.00  1.076959E-01  1.694136E-05  1.077128E-01  1.680000E+09
                          (06,08)  3.345661E-02  2.040173E-02  5.385835E-02  6.680820E-01
       151 0001-01-01 02:31:00.00  1.080795E-01  1.654366E-05  1.080961E-01  1.680000E+09
                          (06,05)  3.352188E-02  2.046031E-02  5.398219E-02  6.695528E-01
       152 0001-01-01 02:32:00.00  1.084565E-01  1.615500E-05  1.084726E-01  1.680000E+09
                          (06,08)  3.358341E-02  2.052159E-02  5.410500E-02  6.709950E-01
       153 0001-01-01 02:33:00.00  1.088269E-01  1.576553E-05  1.088426E-01  1.680000E+09
                          (06,08)  3.364055E-02  2.058165E-02  5.422219E-02  6.723630E-01
       154 0001-01-01 02:34:00.00  1.091908E-01  1.539279E-05  1.092061E-01  1.680000E+09
                          (06,08)  3.369274E-02  2.063662E-02  5.432937E-02  6.736131E-01
       155 0001-01-01 02:35:00.00  1.095482E-01  1.508802E-05  1.095633E-01  1.680000E+09
                          (06,08)  3.373972E-02  2.068378E-02  5.442350E-02  6.747168E-01
       156 0001-01-01 02:36:00.00  1.098993E-01  1.492055E-05  1.099143E-01  1.680000E+09
                          (06,08)  3.378171E-02  2.072206E-02  5.450377E-02  6.756691E-01
       157 0001-01-01 02:37:00.00  1.102441E-01  1.494942E-05  1.102590E-01  1.680000E+09
                          (06,08)  3.381959E-02  2.075213E-02  5.457172E-02  6.764905E-01
       158 0001-01-01 02:38:00.00  1.105826E-01  1.519956E-05  1.105978E-01  1.680000E+09
                          (06,05)  3.385482E-02  2.077602E-02  5.463083E-02  6.772223E-01
       159 0001-01-01 02:39:00.00  1.109148E-01  1.565474E-05  1.109305E-01  1.680000E+09
                          (06,05)  3.388927E-02  2.079644E-02  5.468571E-02  6.779172E-01
       160 0001-01-01 02:40:00.00  1.112410E-01  1.626881E-05  1.112572E-01  1.680000E+09
                          (06,08)  3.392488E-02  2.081626E-02  5.474114E-02  6.786284E-01
       161 0001-01-01 02:41:00.00  1.115611E-01  1.698618E-05  1.115781E-01  1.680000E+09
                          (06,08)  3.396328E-02  2.083796E-02  5.480124E-02  6.794000E-01
       162 0001-01-01 02:42:00.00  1.118753E-01  1.775952E-05  1.118930E-01  1.680000E+09
                          (06,08)  3.400549E-02  2.086334E-02  5.486883E-02  6.802600E-01
      WRT_HIS     - wrote history     fields (Index=1)   in record = 0000010
       163 0001-01-01 02:43:00.00  1.121836E-01  1.855582E-05  1.122021E-01  1.680000E+09
                          (06,08)  3.405179E-02  2.089344E-02  5.494523E-02  6.812193E-01
       164 0001-01-01 02:44:00.00  1.124861E-01  1.934978E-05  1.125054E-01  1.680000E+09
                          (06,08)  3.410179E-02  2.092849E-02  5.503029E-02  6.822726E-01
       165 0001-01-01 02:45:00.00  1.127829E-01  2.011146E-05  1.128030E-01  1.680000E+09
                          (06,05)  3.415468E-02  2.096804E-02  5.512271E-02  6.834033E-01
       166 0001-01-01 02:46:00.00  1.130740E-01  2.079840E-05  1.130948E-01  1.680000E+09
                          (06,05)  3.420947E-02  2.101103E-02  5.522050E-02  6.845894E-01
       167 0001-01-01 02:47:00.00  1.133597E-01  2.135902E-05  1.133810E-01  1.680000E+09
                          (06,08)  3.426531E-02  2.105605E-02  5.532136E-02  6.858071E-01
       168 0001-01-01 02:48:00.00  1.136399E-01  2.174510E-05  1.136616E-01  1.680000E+09
                          (06,08)  3.432152E-02  2.110145E-02  5.542297E-02  6.870343E-01
       169 0001-01-01 02:49:00.00  1.139148E-01  2.192440E-05  1.139367E-01  1.680000E+09
                          (06,08)  3.437760E-02  2.114556E-02  5.552315E-02  6.882500E-01
       170 0001-01-01 02:50:00.00  1.141844E-01  2.188496E-05  1.142063E-01  1.680000E+09
                          (06,08)  3.443305E-02  2.118678E-02  5.561983E-02  6.894334E-01
       171 0001-01-01 02:51:00.00  1.144490E-01  2.163095E-05  1.144706E-01  1.680000E+09
                          (06,08)  3.448720E-02  2.122379E-02  5.571099E-02  6.905621E-01
       172 0001-01-01 02:52:00.00  1.147085E-01  2.117749E-05  1.147297E-01  1.680000E+09
                          (06,08)  3.453912E-02  2.125564E-02  5.579476E-02  6.916125E-01
       173 0001-01-01 02:53:00.00  1.149631E-01  2.055156E-05  1.149836E-01  1.680000E+09
                          (06,05)  3.458765E-02  2.128191E-02  5.586956E-02  6.925622E-01
       174 0001-01-01 02:54:00.00  1.152129E-01  1.979872E-05  1.152327E-01  1.680000E+09
                          (06,08)  3.463162E-02  2.130281E-02  5.593444E-02  6.933947E-01
       175 0001-01-01 02:55:00.00  1.154579E-01  1.898737E-05  1.154769E-01  1.680000E+09
                          (06,08)  3.467014E-02  2.131928E-02  5.598942E-02  6.941039E-01
       176 0001-01-01 02:56:00.00  1.156983E-01  1.820299E-05  1.157165E-01  1.680000E+09
                          (06,08)  3.470283E-02  2.133288E-02  5.603571E-02  6.946985E-01
       177 0001-01-01 02:57:00.00  1.159341E-01  1.753211E-05  1.159516E-01  1.680000E+09
                          (06,08)  3.472996E-02  2.134564E-02  5.607560E-02  6.952009E-01
       178 0001-01-01 02:58:00.00  1.161654E-01  1.704270E-05  1.161824E-01  1.680000E+09
                          (06,08)  3.475245E-02  2.135963E-02  5.611208E-02  6.956445E-01
       179 0001-01-01 02:59:00.00  1.163922E-01  1.676968E-05  1.164089E-01  1.680000E+09
                          (06,08)  3.477163E-02  2.137656E-02  5.614820E-02  6.960660E-01
       180 0001-01-01 03:00:00.00  1.166146E-01  1.671036E-05  1.166313E-01  1.680000E+09
                          (06,05)  3.478902E-02  2.139737E-02  5.618639E-02  6.964976E-01
      WRT_HIS     - wrote history     fields (Index=1)   in record = 0000011
       181 0001-01-01 03:01:00.00  1.168328E-01  1.683023E-05  1.168496E-01  1.680000E+09
                          (06,05)  3.480597E-02  2.142193E-02  5.622790E-02  6.969597E-01
       182 0001-01-01 03:02:00.00  1.170467E-01  1.707663E-05  1.170638E-01  1.680000E+09
                          (06,05)  3.482351E-02  2.144903E-02  5.627253E-02  6.974574E-01
       183 0001-01-01 03:03:00.00  1.172566E-01  1.739581E-05  1.172740E-01  1.680000E+09
                          (06,05)  3.484219E-02  2.147664E-02  5.631883E-02  6.979808E-01
       184 0001-01-01 03:04:00.00  1.174623E-01  1.774791E-05  1.174801E-01  1.680000E+09
                          (06,05)  3.486215E-02  2.150236E-02  5.636451E-02  6.985092E-01
       185 0001-01-01 03:05:00.00  1.176641E-01  1.811455E-05  1.176822E-01  1.680000E+09
                          (06,05)  3.488318E-02  2.152405E-02  5.640723E-02  6.990186E-01
       186 0001-01-01 03:06:00.00  1.178619E-01  1.849736E-05  1.178804E-01  1.680000E+09
                          (06,05)  3.490494E-02  2.154039E-02  5.644533E-02  6.994899E-01
       187 0001-01-01 03:07:00.00  1.180559E-01  1.890959E-05  1.180748E-01  1.680000E+09
                          (06,05)  3.492710E-02  2.155127E-02  5.647837E-02  6.999155E-01
       188 0001-01-01 03:08:00.00  1.182459E-01  1.936594E-05  1.182653E-01  1.680000E+09
                          (06,05)  3.494955E-02  2.155792E-02  5.650747E-02  7.003034E-01
       189 0001-01-01 03:09:00.00  1.184322E-01  1.987444E-05  1.184521E-01  1.680000E+09
                          (06,05)  3.497245E-02  2.156265E-02  5.653511E-02  7.006765E-01
       190 0001-01-01 03:10:00.00  1.186147E-01  2.043125E-05  1.186351E-01  1.680000E+09
                          (06,05)  3.499626E-02  2.156835E-02  5.656461E-02  7.010678E-01
       191 0001-01-01 03:11:00.00  1.187935E-01  2.101767E-05  1.188145E-01  1.680000E+09
                          (06,05)  3.502157E-02  2.157778E-02  5.659935E-02  7.015127E-01
       192 0001-01-01 03:12:00.00  1.189687E-01  2.159904E-05  1.189903E-01  1.680000E+09
                          (06,05)  3.504898E-02  2.159288E-02  5.664186E-02  7.020391E-01
       193 0001-01-01 03:13:00.00  1.191403E-01  2.212634E-05  1.191624E-01  1.680000E+09
                          (06,05)  3.507887E-02  2.161434E-02  5.669321E-02  7.026603E-01
       194 0001-01-01 03:14:00.00  1.193084E-01  2.254158E-05  1.193310E-01  1.680000E+09
                          (06,05)  3.511119E-02  2.164141E-02  5.675260E-02  7.033699E-01
       195 0001-01-01 03:15:00.00  1.194732E-01  2.278706E-05  1.194960E-01  1.680000E+09
                          (06,05)  3.514543E-02  2.167216E-02  5.681759E-02  7.041431E-01
       196 0001-01-01 03:16:00.00  1.196346E-01  2.281700E-05  1.196574E-01  1.680000E+09
                          (06,05)  3.518058E-02  2.170400E-02  5.688458E-02  7.049412E-01
       197 0001-01-01 03:17:00.00  1.197928E-01  2.260921E-05  1.198154E-01  1.680000E+09
                          (06,05)  3.521531E-02  2.173427E-02  5.694957E-02  7.057196E-01
       198 0001-01-01 03:18:00.00  1.199478E-01  2.217317E-05  1.199699E-01  1.680000E+09
                          (06,05)  3.524815E-02  2.176082E-02  5.700897E-02  7.064362E-01
      WRT_HIS     - wrote history     fields (Index=1)   in record = 0000012
       199 0001-01-01 03:19:00.00  1.200996E-01  2.155146E-05  1.201212E-01  1.680000E+09
                          (06,05)  3.527774E-02  2.178238E-02  5.706012E-02  7.070586E-01
       200 0001-01-01 03:20:00.00  1.202485E-01  2.081255E-05  1.202693E-01  1.680000E+09
                          (06,08)  3.530302E-02  2.179858E-02  5.710160E-02  7.075672E-01
       201 0001-01-01 03:21:00.00  1.203943E-01  2.003686E-05  1.204143E-01  1.680000E+09
                          (06,05)  3.532336E-02  2.180985E-02  5.713321E-02  7.079567E-01
       202 0001-01-01 03:22:00.00  1.205372E-01  1.930126E-05  1.205565E-01  1.680000E+09
                          (06,05)  3.533868E-02  2.181710E-02  5.715578E-02  7.082339E-01
       203 0001-01-01 03:23:00.00  1.206771E-01  1.866805E-05  1.206958E-01  1.680000E+09
                          (06,05)  3.534938E-02  2.182152E-02  5.717090E-02  7.084160E-01
       204 0001-01-01 03:24:00.00  1.208143E-01  1.818132E-05  1.208325E-01  1.680000E+09
                          (06,08)  3.535631E-02  2.182435E-02  5.718066E-02  7.085270E-01
       205 0001-01-01 03:25:00.00  1.209488E-01  1.786880E-05  1.209666E-01  1.680000E+09
                          (06,08)  3.536060E-02  2.182680E-02  5.718740E-02  7.085957E-01
       206 0001-01-01 03:26:00.00  1.210805E-01  1.774444E-05  1.210982E-01  1.680000E+09
                          (06,08)  3.536354E-02  2.183004E-02  5.719358E-02  7.086521E-01
       207 0001-01-01 03:27:00.00  1.212096E-01  1.780858E-05  1.212274E-01  1.680000E+09
                          (06,05)  3.536637E-02  2.183506E-02  5.720144E-02  7.087247E-01
       208 0001-01-01 03:28:00.00  1.213361E-01  1.804623E-05  1.213542E-01  1.680000E+09
                          (06,05)  3.537019E-02  2.184261E-02  5.721280E-02  7.088369E-01
       209 0001-01-01 03:29:00.00  1.214601E-01  1.842677E-05  1.214785E-01  1.680000E+09
                          (06,05)  3.537579E-02  2.185305E-02  5.722884E-02  7.090039E-01
       210 0001-01-01 03:30:00.00  1.215815E-01  1.890774E-05  1.216004E-01  1.680000E+09
                          (06,05)  3.538365E-02  2.186625E-02  5.724989E-02  7.092313E-01
       211 0001-01-01 03:31:00.00  1.217005E-01  1.944216E-05  1.217199E-01  1.680000E+09
                          (06,05)  3.539397E-02  2.188153E-02  5.727551E-02  7.095150E-01
       212 0001-01-01 03:32:00.00  1.218170E-01  1.998683E-05  1.218370E-01  1.680000E+09
                          (06,05)  3.540672E-02  2.189787E-02  5.730459E-02  7.098436E-01
       213 0001-01-01 03:33:00.00  1.219312E-01  2.050824E-05  1.219517E-01  1.680000E+09
                          (06,05)  3.542171E-02  2.191403E-02  5.733574E-02  7.102022E-01
       214 0001-01-01 03:34:00.00  1.220430E-01  2.098445E-05  1.220640E-01  1.680000E+09
                          (06,05)  3.543863E-02  2.192892E-02  5.736756E-02  7.105755E-01
       215 0001-01-01 03:35:00.00  1.221525E-01  2.140327E-05  1.221739E-01  1.680000E+09
                          (06,05)  3.545712E-02  2.194178E-02  5.739890E-02  7.109513E-01
       216 0001-01-01 03:36:00.00  1.222598E-01  2.175829E-05  1.222815E-01  1.680000E+09
                          (06,05)  3.547670E-02  2.195237E-02  5.742907E-02  7.113212E-01
      WRT_HIS     - wrote history     fields (Index=1)   in record = 0000013
       217 0001-01-01 03:37:00.00  1.223647E-01  2.204486E-05  1.223868E-01  1.680000E+09
                          (06,05)  3.549681E-02  2.196098E-02  5.745779E-02  7.116806E-01
       218 0001-01-01 03:38:00.00  1.224675E-01  2.225797E-05  1.224898E-01  1.680000E+09
                          (06,08)  3.551685E-02  2.196833E-02  5.748517E-02  7.120283E-01
       219 0001-01-01 03:39:00.00  1.225681E-01  2.239257E-05  1.225905E-01  1.680000E+09
                          (06,08)  3.553626E-02  2.197535E-02  5.751161E-02  7.123656E-01
       220 0001-01-01 03:40:00.00  1.226666E-01  2.244564E-05  1.226891E-01  1.680000E+09
                          (06,05)  3.555465E-02  2.198302E-02  5.753768E-02  7.126958E-01
       221 0001-01-01 03:41:00.00  1.227630E-01  2.241802E-05  1.227854E-01  1.680000E+09
                          (06,05)  3.557189E-02  2.199216E-02  5.756405E-02  7.130238E-01
       222 0001-01-01 03:42:00.00  1.228573E-01  2.231409E-05  1.228797E-01  1.680000E+09
                          (06,05)  3.558811E-02  2.200326E-02  5.759137E-02  7.133557E-01
       223 0001-01-01 03:43:00.00  1.229496E-01  2.213930E-05  1.229718E-01  1.680000E+09
                          (06,05)  3.560368E-02  2.201644E-02  5.762012E-02  7.136969E-01
       224 0001-01-01 03:44:00.00  1.230400E-01  2.189739E-05  1.230619E-01  1.680000E+09
                          (06,05)  3.561901E-02  2.203140E-02  5.765041E-02  7.140499E-01
       225 0001-01-01 03:45:00.00  1.231283E-01  2.158984E-05  1.231499E-01  1.680000E+09
                          (06,05)  3.563434E-02  2.204745E-02  5.768179E-02  7.144117E-01
       226 0001-01-01 03:46:00.00  1.232149E-01  2.121901E-05  1.232361E-01  1.680000E+09
                          (06,05)  3.564960E-02  2.206361E-02  5.771321E-02  7.147719E-01
       227 0001-01-01 03:47:00.00  1.232996E-01  2.079381E-05  1.233204E-01  1.680000E+09
                          (06,05)  3.566430E-02  2.207874E-02  5.774304E-02  7.151134E-01
       228 0001-01-01 03:48:00.00  1.233826E-01  2.033494E-05  1.234030E-01  1.680000E+09
                          (06,05)  3.567764E-02  2.209170E-02  5.776934E-02  7.154143E-01
       229 0001-01-01 03:49:00.00  1.234640E-01  1.987654E-05  1.234838E-01  1.680000E+09
                          (06,05)  3.568870E-02  2.210158E-02  5.779028E-02  7.156532E-01
       230 0001-01-01 03:50:00.00  1.235437E-01  1.946247E-05  1.235631E-01  1.680000E+09
                          (06,05)  3.569671E-02  2.210788E-02  5.780458E-02  7.158143E-01
       231 0001-01-01 03:51:00.00  1.236218E-01  1.913811E-05  1.236409E-01  1.680000E+09
                          (06,05)  3.570129E-02  2.211063E-02  5.781192E-02  7.158931E-01
       232 0001-01-01 03:52:00.00  1.236983E-01  1.894098E-05  1.237172E-01  1.680000E+09
                          (06,05)  3.570269E-02  2.211045E-02  5.781314E-02  7.158990E-01
       233 0001-01-01 03:53:00.00  1.237733E-01  1.889387E-05  1.237922E-01  1.680000E+09
                          (06,05)  3.570174E-02  2.210846E-02  5.781020E-02  7.158550E-01
       234 0001-01-01 03:54:00.00  1.238467E-01  1.900250E-05  1.238657E-01  1.680000E+09
                          (06,05)  3.569980E-02  2.210607E-02  5.780587E-02  7.157941E-01
      WRT_HIS     - wrote history     fields (Index=1)   in record = 0000014
       235 0001-01-01 03:55:00.00  1.239186E-01  1.925711E-05  1.239378E-01  1.680000E+09
                          (06,05)  3.569847E-02  2.210473E-02  5.780320E-02  7.157531E-01
       236 0001-01-01 03:56:00.00  1.239890E-01  1.963544E-05  1.240086E-01  1.680000E+09
                          (06,05)  3.569927E-02  2.210566E-02  5.780493E-02  7.157655E-01
       237 0001-01-01 03:57:00.00  1.240579E-01  2.010488E-05  1.240780E-01  1.680000E+09
                          (06,08)  3.570334E-02  2.210965E-02  5.781299E-02  7.158546E-01
       238 0001-01-01 03:58:00.00  1.241253E-01  2.062404E-05  1.241460E-01  1.680000E+09
                          (06,08)  3.571123E-02  2.211689E-02  5.782812E-02  7.160301E-01
       239 0001-01-01 03:59:00.00  1.241914E-01  2.114573E-05  1.242125E-01  1.680000E+09
                          (06,08)  3.572278E-02  2.212706E-02  5.784984E-02  7.162862E-01
       240 0001-01-01 04:00:00.00  1.242561E-01  2.162276E-05  1.242777E-01  1.680000E+09
                          (06,05)  3.573724E-02  2.213938E-02  5.787663E-02  7.166044E-01
       241 0001-01-01 04:01:00.00  1.243194E-01  2.201597E-05  1.243414E-01  1.680000E+09
                          (06,08)  3.575347E-02  2.215283E-02  5.790630E-02  7.169583E-01
       242 0001-01-01 04:02:00.00  1.243814E-01  2.230117E-05  1.244037E-01  1.680000E+09
                          (06,05)  3.577017E-02  2.216633E-02  5.793650E-02  7.173194E-01
       243 0001-01-01 04:03:00.00  1.244420E-01  2.247179E-05  1.244645E-01  1.680000E+09
                          (06,08)  3.578621E-02  2.217892E-02  5.796513E-02  7.176628E-01
       244 0001-01-01 04:04:00.00  1.245014E-01  2.253595E-05  1.245239E-01  1.680000E+09
                          (06,05)  3.580081E-02  2.218988E-02  5.799069E-02  7.179711E-01
       245 0001-01-01 04:05:00.00  1.245594E-01  2.250980E-05  1.245820E-01  1.680000E+09
                          (06,08)  3.581365E-02  2.219877E-02  5.801242E-02  7.182361E-01
       246 0001-01-01 04:06:00.00  1.246162E-01  2.241074E-05  1.246386E-01  1.680000E+09
                          (06,05)  3.582486E-02  2.220543E-02  5.803029E-02  7.184582E-01
       247 0001-01-01 04:07:00.00  1.246717E-01  2.225369E-05  1.246939E-01  1.680000E+09
                          (06,05)  3.583481E-02  2.221003E-02  5.804484E-02  7.186443E-01
       248 0001-01-01 04:08:00.00  1.247259E-01  2.205129E-05  1.247480E-01  1.680000E+09
                          (06,08)  3.584400E-02  2.221298E-02  5.805698E-02  7.188048E-01
       249 0001-01-01 04:09:00.00  1.247790E-01  2.181644E-05  1.248008E-01  1.680000E+09
                          (06,08)  3.585283E-02  2.221495E-02  5.806778E-02  7.189509E-01
       250 0001-01-01 04:10:00.00  1.248309E-01  2.156422E-05  1.248524E-01  1.680000E+09
                          (06,08)  3.586155E-02  2.221672E-02  5.807826E-02  7.190924E-01
       251 0001-01-01 04:11:00.00  1.248816E-01  2.131129E-05  1.249030E-01  1.680000E+09
                          (06,08)  3.587015E-02  2.221913E-02  5.808928E-02  7.192365E-01
       252 0001-01-01 04:12:00.00  1.249313E-01  2.107277E-05  1.249524E-01  1.680000E+09
                          (06,08)  3.587848E-02  2.222290E-02  5.810138E-02  7.193873E-01
      WRT_HIS     - wrote history     fields (Index=1)   in record = 0000015
       253 0001-01-01 04:13:00.00  1.249800E-01  2.085865E-05  1.250008E-01  1.680000E+09
                          (06,05)  3.588632E-02  2.222848E-02  5.811480E-02  7.195459E-01
       254 0001-01-01 04:14:00.00  1.250276E-01  2.067225E-05  1.250483E-01  1.680000E+09
                          (06,05)  3.589344E-02  2.223590E-02  5.812934E-02  7.197099E-01
       255 0001-01-01 04:15:00.00  1.250743E-01  2.051195E-05  1.250948E-01  1.680000E+09
                          (06,05)  3.589971E-02  2.224474E-02  5.814445E-02  7.198740E-01
       256 0001-01-01 04:16:00.00  1.251200E-01  2.037540E-05  1.251404E-01  1.680000E+09
                          (06,05)  3.590507E-02  2.225419E-02  5.815925E-02  7.200307E-01
       257 0001-01-01 04:17:00.00  1.251648E-01  2.026364E-05  1.251851E-01  1.680000E+09
                          (06,05)  3.590954E-02  2.226316E-02  5.817270E-02  7.201709E-01
       258 0001-01-01 04:18:00.00  1.252088E-01  2.018302E-05  1.252290E-01  1.680000E+09
                          (06,05)  3.591320E-02  2.227056E-02  5.818376E-02  7.202858E-01
       259 0001-01-01 04:19:00.00  1.252518E-01  2.014405E-05  1.252720E-01  1.680000E+09
                          (06,05)  3.591615E-02  2.227552E-02  5.819168E-02  7.203692E-01
       260 0001-01-01 04:20:00.00  1.252940E-01  2.015806E-05  1.253142E-01  1.680000E+09
                          (06,05)  3.591855E-02  2.227762E-02  5.819617E-02  7.204192E-01
       261 0001-01-01 04:21:00.00  1.253353E-01  2.023354E-05  1.253556E-01  1.680000E+09
                          (06,05)  3.592059E-02  2.227698E-02  5.819756E-02  7.204399E-01
       262 0001-01-01 04:22:00.00  1.253758E-01  2.037375E-05  1.253962E-01  1.680000E+09
                          (06,05)  3.592255E-02  2.227430E-02  5.819685E-02  7.204415E-01
       263 0001-01-01 04:23:00.00  1.254155E-01  2.057596E-05  1.254360E-01  1.680000E+09
                          (06,05)  3.592479E-02  2.227074E-02  5.819553E-02  7.204398E-01
       264 0001-01-01 04:24:00.00  1.254543E-01  2.083163E-05  1.254751E-01  1.680000E+09
                          (06,05)  3.592771E-02  2.226767E-02  5.819538E-02  7.204531E-01
       265 0001-01-01 04:25:00.00  1.254922E-01  2.112667E-05  1.255133E-01  1.680000E+09
                          (06,05)  3.593170E-02  2.226642E-02  5.819812E-02  7.204991E-01
       266 0001-01-01 04:26:00.00  1.255293E-01  2.144139E-05  1.255508E-01  1.680000E+09
                          (06,05)  3.593705E-02  2.226799E-02  5.820504E-02  7.205911E-01
       267 0001-01-01 04:27:00.00  1.255657E-01  2.175086E-05  1.255874E-01  1.680000E+09
                          (06,05)  3.594386E-02  2.227288E-02  5.821674E-02  7.207352E-01
       268 0001-01-01 04:28:00.00  1.256012E-01  2.202685E-05  1.256232E-01  1.680000E+09
                          (06,05)  3.595204E-02  2.228093E-02  5.823297E-02  7.209287E-01
       269 0001-01-01 04:29:00.00  1.256359E-01  2.224205E-05  1.256581E-01  1.680000E+09
                          (06,05)  3.596128E-02  2.229139E-02  5.825267E-02  7.211601E-01
       270 0001-01-01 04:30:00.00  1.256698E-01  2.237551E-05  1.256922E-01  1.680000E+09
                          (06,05)  3.597111E-02  2.230305E-02  5.827416E-02  7.214115E-01
      WRT_HIS     - wrote history     fields (Index=1)   in record = 0000016
       271 0001-01-01 04:31:00.00  1.257031E-01  2.241737E-05  1.257255E-01  1.680000E+09
                          (06,05)  3.598101E-02  2.231449E-02  5.829550E-02  7.216621E-01
       272 0001-01-01 04:32:00.00  1.257355E-01  2.237062E-05  1.257579E-01  1.680000E+09
                          (06,05)  3.599047E-02  2.232438E-02  5.831486E-02  7.218922E-01
       273 0001-01-01 04:33:00.00  1.257673E-01  2.224916E-05  1.257895E-01  1.680000E+09
                          (06,05)  3.599912E-02  2.233176E-02  5.833088E-02  7.220871E-01
       274 0001-01-01 04:34:00.00  1.257983E-01  2.207318E-05  1.258204E-01  1.680000E+09
                          (06,05)  3.600674E-02  2.233618E-02  5.834292E-02  7.222395E-01
       275 0001-01-01 04:35:00.00  1.258286E-01  2.186404E-05  1.258505E-01  1.680000E+09
                          (06,05)  3.601330E-02  2.233778E-02  5.835108E-02  7.223501E-01
       276 0001-01-01 04:36:00.00  1.258583E-01  2.164079E-05  1.258799E-01  1.680000E+09
                          (06,05)  3.601888E-02  2.233723E-02  5.835610E-02  7.224259E-01
       277 0001-01-01 04:37:00.00  1.258873E-01  2.141906E-05  1.259087E-01  1.680000E+09
                          (06,05)  3.602364E-02  2.233551E-02  5.835915E-02  7.224784E-01
       278 0001-01-01 04:38:00.00  1.259157E-01  2.121166E-05  1.259370E-01  1.680000E+09
                          (06,05)  3.602776E-02  2.233370E-02  5.836146E-02  7.225198E-01
       279 0001-01-01 04:39:00.00  1.259436E-01  2.102961E-05  1.259646E-01  1.680000E+09
                          (06,05)  3.603136E-02  2.233275E-02  5.836411E-02  7.225607E-01
       280 0001-01-01 04:40:00.00  1.259709E-01  2.088224E-05  1.259917E-01  1.680000E+09
                          (06,05)  3.603453E-02  2.233330E-02  5.836783E-02  7.226081E-01
       281 0001-01-01 04:41:00.00  1.259976E-01  2.077617E-05  1.260184E-01  1.680000E+09
                          (06,05)  3.603731E-02  2.233563E-02  5.837294E-02  7.226654E-01
       282 0001-01-01 04:42:00.00  1.260238E-01  2.071405E-05  1.260445E-01  1.680000E+09
                          (06,05)  3.603974E-02  2.233963E-02  5.837937E-02  7.227324E-01
       283 0001-01-01 04:43:00.00  1.260495E-01  2.069389E-05  1.260702E-01  1.680000E+09
                          (06,05)  3.604190E-02  2.234492E-02  5.838682E-02  7.228071E-01
       284 0001-01-01 04:44:00.00  1.260747E-01  2.070983E-05  1.260954E-01  1.680000E+09
                          (06,05)  3.604390E-02  2.235094E-02  5.839484E-02  7.228865E-01
       285 0001-01-01 04:45:00.00  1.260994E-01  2.075381E-05  1.261202E-01  1.680000E+09
                          (06,05)  3.604589E-02  2.235705E-02  5.840293E-02  7.229673E-01
       286 0001-01-01 04:46:00.00  1.261236E-01  2.081743E-05  1.261445E-01  1.680000E+09
                          (06,05)  3.604800E-02  2.236261E-02  5.841061E-02  7.230461E-01
       287 0001-01-01 04:47:00.00  1.261474E-01  2.089323E-05  1.261683E-01  1.680000E+09
                          (06,05)  3.605032E-02  2.236709E-02  5.841741E-02  7.231194E-01
       288 0001-01-01 04:48:00.00  1.261706E-01  2.097533E-05  1.261916E-01  1.680000E+09
                          (06,05)  3.605284E-02  2.237011E-02  5.842295E-02  7.231836E-01
      WRT_HIS     - wrote history     fields (Index=1)   in record = 0000017
       289 0001-01-01 04:49:00.00  1.261934E-01  2.105985E-05  1.262145E-01  1.680000E+09
                          (06,08)  3.605545E-02  2.237150E-02  5.842695E-02  7.232354E-01
       290 0001-01-01 04:50:00.00  1.262157E-01  2.114542E-05  1.262369E-01  1.680000E+09
                          (06,08)  3.605799E-02  2.237131E-02  5.842930E-02  7.232723E-01
       291 0001-01-01 04:51:00.00  1.262375E-01  2.123362E-05  1.262588E-01  1.680000E+09
                          (06,05)  3.606030E-02  2.236990E-02  5.843020E-02  7.232949E-01
       292 0001-01-01 04:52:00.00  1.262589E-01  2.132876E-05  1.262802E-01  1.680000E+09
                          (06,08)  3.606229E-02  2.236786E-02  5.843015E-02  7.233068E-01
       293 0001-01-01 04:53:00.00  1.262798E-01  2.143627E-05  1.263012E-01  1.680000E+09
                          (06,08)  3.606404E-02  2.236596E-02  5.842999E-02  7.233156E-01
       294 0001-01-01 04:54:00.00  1.263002E-01  2.155998E-05  1.263218E-01  1.680000E+09
                          (06,05)  3.606574E-02  2.236503E-02  5.843077E-02  7.233321E-01
       295 0001-01-01 04:55:00.00  1.263202E-01  2.169904E-05  1.263419E-01  1.680000E+09
                          (06,08)  3.606774E-02  2.236581E-02  5.843356E-02  7.233681E-01
       296 0001-01-01 04:56:00.00  1.263397E-01  2.184573E-05  1.263615E-01  1.680000E+09
                          (06,05)  3.607044E-02  2.236876E-02  5.843920E-02  7.234336E-01
       297 0001-01-01 04:57:00.00  1.263587E-01  2.198524E-05  1.263807E-01  1.680000E+09
                          (06,05)  3.607415E-02  2.237393E-02  5.844808E-02  7.235346E-01
       298 0001-01-01 04:58:00.00  1.263773E-01  2.209790E-05  1.263994E-01  1.680000E+09
                          (06,05)  3.607906E-02  2.238097E-02  5.846003E-02  7.236703E-01
       299 0001-01-01 04:59:00.00  1.263954E-01  2.216331E-05  1.264176E-01  1.680000E+09
                          (06,05)  3.608511E-02  2.238910E-02  5.847422E-02  7.238329E-01
       300 0001-01-01 05:00:00.00  1.264132E-01  2.216544E-05  1.264354E-01  1.680000E+09
                          (06,05)  3.609200E-02  2.239735E-02  5.848935E-02  7.240088E-01
       301 0001-01-01 05:01:00.00  1.264306E-01  2.209689E-05  1.264527E-01  1.680000E+09
                          (06,05)  3.609924E-02  2.240467E-02  5.850391E-02  7.241808E-01
       302 0001-01-01 05:02:00.00  1.264477E-01  2.196133E-05  1.264697E-01  1.680000E+09
                          (06,05)  3.610620E-02  2.241022E-02  5.851642E-02  7.243318E-01
       303 0001-01-01 05:03:00.00  1.264644E-01  2.177316E-05  1.264862E-01  1.680000E+09
                          (06,08)  3.611229E-02  2.241351E-02  5.852580E-02  7.244484E-01
       304 0001-01-01 05:04:00.00  1.264808E-01  2.155469E-05  1.265024E-01  1.680000E+09
                          (06,05)  3.611704E-02  2.241450E-02  5.853154E-02  7.245232E-01
       305 0001-01-01 05:05:00.00  1.264969E-01  2.133185E-05  1.265182E-01  1.680000E+09
                          (06,05)  3.612020E-02  2.241361E-02  5.853381E-02  7.245565E-01
       306 0001-01-01 05:06:00.00  1.265127E-01  2.112958E-05  1.265338E-01  1.680000E+09
                          (06,05)  3.612178E-02  2.241156E-02  5.853334E-02  7.245556E-01
      WRT_HIS     - wrote history     fields (Index=1)   in record = 0000018
       307 0001-01-01 05:07:00.00  1.265282E-01  2.096793E-05  1.265491E-01  1.680000E+09
                          (06,05)  3.612205E-02  2.240924E-02  5.853129E-02  7.245326E-01
       308 0001-01-01 05:08:00.00  1.265433E-01  2.085954E-05  1.265642E-01  1.680000E+09
                          (06,05)  3.612143E-02  2.240750E-02  5.852894E-02  7.245023E-01
       309 0001-01-01 05:09:00.00  1.265582E-01  2.080864E-05  1.265790E-01  1.680000E+09
                          (06,05)  3.612046E-02  2.240698E-02  5.852744E-02  7.244783E-01
       310 0001-01-01 05:10:00.00  1.265728E-01  2.081133E-05  1.265936E-01  1.680000E+09
                          (06,05)  3.611962E-02  2.240800E-02  5.852762E-02  7.244712E-01
       311 0001-01-01 05:11:00.00  1.265871E-01  2.085719E-05  1.266079E-01  1.680000E+09
                          (06,05)  3.611928E-02  2.241055E-02  5.852983E-02  7.244862E-01
       312 0001-01-01 05:12:00.00  1.266011E-01  2.093175E-05  1.266220E-01  1.680000E+09
                          (06,05)  3.611963E-02  2.241428E-02  5.853391E-02  7.245231E-01
       313 0001-01-01 05:13:00.00  1.266149E-01  2.101950E-05  1.266359E-01  1.680000E+09
                          (06,05)  3.612066E-02  2.241870E-02  5.853936E-02  7.245769E-01
       314 0001-01-01 05:14:00.00  1.266284E-01  2.110713E-05  1.266495E-01  1.680000E+09
                          (06,05)  3.612220E-02  2.242320E-02  5.854541E-02  7.246395E-01
       315 0001-01-01 05:15:00.00  1.266416E-01  2.118599E-05  1.266628E-01  1.680000E+09
                          (06,05)  3.612400E-02  2.242723E-02  5.855123E-02  7.247019E-01
       316 0001-01-01 05:16:00.00  1.266546E-01  2.125331E-05  1.266758E-01  1.680000E+09
                          (06,05)  3.612578E-02  2.243037E-02  5.855616E-02  7.247560E-01
       317 0001-01-01 05:17:00.00  1.266672E-01  2.131175E-05  1.266886E-01  1.680000E+09
                          (06,05)  3.612734E-02  2.243241E-02  5.855974E-02  7.247966E-01
       318 0001-01-01 05:18:00.00  1.266797E-01  2.136741E-05  1.267010E-01  1.680000E+09
                          (06,05)  3.612857E-02  2.243332E-02  5.856189E-02  7.248218E-01
       319 0001-01-01 05:19:00.00  1.266918E-01  2.142714E-05  1.267133E-01  1.680000E+09
                          (06,05)  3.612952E-02  2.243329E-02  5.856281E-02  7.248340E-01
       320 0001-01-01 05:20:00.00  1.267037E-01  2.149607E-05  1.267252E-01  1.680000E+09
                          (06,05)  3.613034E-02  2.243267E-02  5.856301E-02  7.248385E-01
       321 0001-01-01 05:21:00.00  1.267153E-01  2.157593E-05  1.267369E-01  1.680000E+09
                          (06,05)  3.613128E-02  2.243189E-02  5.856317E-02  7.248429E-01
       322 0001-01-01 05:22:00.00  1.267267E-01  2.166463E-05  1.267483E-01  1.680000E+09
                          (06,05)  3.613259E-02  2.243140E-02  5.856399E-02  7.248554E-01
       323 0001-01-01 05:23:00.00  1.267378E-01  2.175654E-05  1.267595E-01  1.680000E+09
                          (06,05)  3.613450E-02  2.243164E-02  5.856614E-02  7.248833E-01
       324 0001-01-01 05:24:00.00  1.267486E-01  2.184333E-05  1.267705E-01  1.680000E+09
                          (06,05)  3.613719E-02  2.243290E-02  5.857008E-02  7.249319E-01
      WRT_HIS     - wrote history     fields (Index=1)   in record = 0000019
       325 0001-01-01 05:25:00.00  1.267593E-01  2.191497E-05  1.267812E-01  1.680000E+09
                          (06,05)  3.614069E-02  2.243534E-02  5.857603E-02  7.250032E-01
       326 0001-01-01 05:26:00.00  1.267697E-01  2.196091E-05  1.267916E-01  1.680000E+09
                          (06,05)  3.614494E-02  2.243896E-02  5.858390E-02  7.250959E-01
       327 0001-01-01 05:27:00.00  1.267798E-01  2.197156E-05  1.268018E-01  1.680000E+09
                          (06,05)  3.614976E-02  2.244354E-02  5.859330E-02  7.252055E-01
       328 0001-01-01 05:28:00.00  1.267898E-01  2.193996E-05  1.268118E-01  1.680000E+09
                          (06,05)  3.615488E-02  2.244872E-02  5.860360E-02  7.253242E-01
       329 0001-01-01 05:29:00.00  1.267996E-01  2.186342E-05  1.268215E-01  1.680000E+09
                          (06,05)  3.615995E-02  2.245404E-02  5.861399E-02  7.254429E-01
       330 0001-01-01 05:30:00.00  1.268093E-01  2.174483E-05  1.268310E-01  1.680000E+09
                          (06,05)  3.616463E-02  2.245897E-02  5.862359E-02  7.255517E-01
       331 0001-01-01 05:31:00.00  1.268187E-01  2.159285E-05  1.268403E-01  1.680000E+09
                          (06,05)  3.616859E-02  2.246302E-02  5.863162E-02  7.256416E-01
       332 0001-01-01 05:32:00.00  1.268280E-01  2.142108E-05  1.268494E-01  1.680000E+09
                          (06,05)  3.617158E-02  2.246584E-02  5.863742E-02  7.257057E-01
       333 0001-01-01 05:33:00.00  1.268372E-01  2.124603E-05  1.268584E-01  1.680000E+09
                          (06,05)  3.617344E-02  2.246722E-02  5.864066E-02  7.257402E-01
       334 0001-01-01 05:34:00.00  1.268461E-01  2.108455E-05  1.268672E-01  1.680000E+09
                          (06,05)  3.617413E-02  2.246718E-02  5.864131E-02  7.257451E-01
       335 0001-01-01 05:35:00.00  1.268550E-01  2.095140E-05  1.268759E-01  1.680000E+09
                          (06,05)  3.617376E-02  2.246597E-02  5.863973E-02  7.257243E-01
       336 0001-01-01 05:36:00.00  1.268636E-01  2.085755E-05  1.268845E-01  1.680000E+09
                          (06,05)  3.617252E-02  2.246403E-02  5.863655E-02  7.256850E-01
       337 0001-01-01 05:37:00.00  1.268721E-01  2.080935E-05  1.268929E-01  1.680000E+09
                          (06,05)  3.617073E-02  2.246190E-02  5.863263E-02  7.256364E-01
       338 0001-01-01 05:38:00.00  1.268804E-01  2.080845E-05  1.269013E-01  1.680000E+09
                          (06,05)  3.616873E-02  2.246015E-02  5.862888E-02  7.255890E-01
       339 0001-01-01 05:39:00.00  1.268886E-01  2.085204E-05  1.269095E-01  1.680000E+09
                          (06,05)  3.616689E-02  2.245926E-02  5.862616E-02  7.255523E-01
       340 0001-01-01 05:40:00.00  1.268966E-01  2.093329E-05  1.269176E-01  1.680000E+09
                          (06,05)  3.616555E-02  2.245953E-02  5.862508E-02  7.255334E-01
       341 0001-01-01 05:41:00.00  1.269045E-01  2.104217E-05  1.269255E-01  1.680000E+09
                          (06,05)  3.616494E-02  2.246104E-02  5.862597E-02  7.255366E-01
       342 0001-01-01 05:42:00.00  1.269122E-01  2.116661E-05  1.269334E-01  1.680000E+09
                          (06,08)  3.616520E-02  2.246361E-02  5.862881E-02  7.255621E-01
      WRT_HIS     - wrote history     fields (Index=1)   in record = 0000020
       343 0001-01-01 05:43:00.00  1.269198E-01  2.129433E-05  1.269411E-01  1.680000E+09
                          (06,08)  3.616634E-02  2.246692E-02  5.863325E-02  7.256068E-01
       344 0001-01-01 05:44:00.00  1.269272E-01  2.141471E-05  1.269486E-01  1.680000E+09
                          (06,08)  3.616823E-02  2.247050E-02  5.863873E-02  7.256648E-01
       345 0001-01-01 05:45:00.00  1.269344E-01  2.152037E-05  1.269560E-01  1.680000E+09
                          (06,05)  3.617068E-02  2.247390E-02  5.864458E-02  7.257290E-01
       346 0001-01-01 05:46:00.00  1.269416E-01  2.160770E-05  1.269632E-01  1.680000E+09
                          (06,08)  3.617344E-02  2.247674E-02  5.865018E-02  7.257924E-01
       347 0001-01-01 05:47:00.00  1.269486E-01  2.167630E-05  1.269702E-01  1.680000E+09
                          (06,05)  3.617626E-02  2.247878E-02  5.865504E-02  7.258496E-01
       348 0001-01-01 05:48:00.00  1.269554E-01  2.172764E-05  1.269771E-01  1.680000E+09
                          (06,05)  3.617898E-02  2.247996E-02  5.865895E-02  7.258976E-01
       349 0001-01-01 05:49:00.00  1.269621E-01  2.176355E-05  1.269839E-01  1.680000E+09
                          (06,05)  3.618153E-02  2.248041E-02  5.866193E-02  7.259365E-01
       350 0001-01-01 05:50:00.00  1.269687E-01  2.178515E-05  1.269905E-01  1.680000E+09
                          (06,08)  3.618393E-02  2.248036E-02  5.866429E-02  7.259690E-01
       351 0001-01-01 05:51:00.00  1.269751E-01  2.179264E-05  1.269969E-01  1.680000E+09
                          (06,08)  3.618629E-02  2.248016E-02  5.866645E-02  7.259996E-01
       352 0001-01-01 05:52:00.00  1.269814E-01  2.178552E-05  1.270032E-01  1.680000E+09
                          (06,08)  3.618876E-02  2.248016E-02  5.866892E-02  7.260334E-01
       353 0001-01-01 05:53:00.00  1.269876E-01  2.176307E-05  1.270094E-01  1.680000E+09
                          (06,08)  3.619145E-02  2.248067E-02  5.867212E-02  7.260749E-01
       354 0001-01-01 05:54:00.00  1.269937E-01  2.172465E-05  1.270154E-01  1.680000E+09
                          (06,05)  3.619443E-02  2.248190E-02  5.867633E-02  7.261267E-01
       355 0001-01-01 05:55:00.00  1.269997E-01  2.166977E-05  1.270213E-01  1.680000E+09
                          (06,08)  3.619763E-02  2.248393E-02  5.868156E-02  7.261888E-01
       356 0001-01-01 05:56:00.00  1.270055E-01  2.159833E-05  1.270271E-01  1.680000E+09
                          (06,05)  3.620091E-02  2.248669E-02  5.868760E-02  7.262581E-01
       357 0001-01-01 05:57:00.00  1.270113E-01  2.151105E-05  1.270328E-01  1.680000E+09
                          (06,05)  3.620402E-02  2.248997E-02  5.869399E-02  7.263296E-01
       358 0001-01-01 05:58:00.00  1.270170E-01  2.141014E-05  1.270384E-01  1.680000E+09
                          (06,05)  3.620670E-02  2.249344E-02  5.870014E-02  7.263966E-01
       359 0001-01-01 05:59:00.00  1.270226E-01  2.129998E-05  1.270439E-01  1.680000E+09
                          (06,05)  3.620872E-02  2.249671E-02  5.870543E-02  7.264523E-01
       360 0001-01-01 06:00:00.00  1.270281E-01  2.118722E-05  1.270493E-01  1.680000E+09
                          (06,08)  3.620992E-02  2.249938E-02  5.870930E-02  7.264910E-01
      WRT_HIS     - wrote history     fields (Index=1)   in record = 0000021
       361 0001-01-01 06:01:00.00  1.270335E-01  2.108020E-05  1.270546E-01  1.680000E+09
                          (06,08)  3.621026E-02  2.250112E-02  5.871139E-02  7.265092E-01
       362 0001-01-01 06:02:00.00  1.270388E-01  2.098786E-05  1.270598E-01  1.680000E+09
                          (06,08)  3.620981E-02  2.250175E-02  5.871157E-02  7.265062E-01
       363 0001-01-01 06:03:00.00  1.270441E-01  2.091844E-05  1.270650E-01  1.680000E+09
                          (06,08)  3.620874E-02  2.250125E-02  5.870999E-02  7.264843E-01
       364 0001-01-01 06:04:00.00  1.270493E-01  2.087845E-05  1.270701E-01  1.680000E+09
                          (06,08)  3.620730E-02  2.249978E-02  5.870708E-02  7.264483E-01
       365 0001-01-01 06:05:00.00  1.270543E-01  2.087212E-05  1.270752E-01  1.680000E+09
                          (06,08)  3.620576E-02  2.249765E-02  5.870341E-02  7.264051E-01
       366 0001-01-01 06:06:00.00  1.270593E-01  2.090117E-05  1.270802E-01  1.680000E+09
                          (06,05)  3.620437E-02  2.249533E-02  5.869970E-02  7.263624E-01
       367 0001-01-01 06:07:00.00  1.270642E-01  2.096476E-05  1.270852E-01  1.680000E+09
                          (06,05)  3.620338E-02  2.249328E-02  5.869666E-02  7.263276E-01
       368 0001-01-01 06:08:00.00  1.270690E-01  2.105930E-05  1.270901E-01  1.680000E+09
                          (06,05)  3.620293E-02  2.249196E-02  5.869490E-02  7.263072E-01
       369 0001-01-01 06:09:00.00  1.270738E-01  2.117834E-05  1.270950E-01  1.680000E+09
                          (06,05)  3.620316E-02  2.249170E-02  5.869485E-02  7.263060E-01
       370 0001-01-01 06:10:00.00  1.270784E-01  2.131257E-05  1.270997E-01  1.680000E+09
                          (06,05)  3.620409E-02  2.249265E-02  5.869674E-02  7.263261E-01
       371 0001-01-01 06:11:00.00  1.270830E-01  2.145049E-05  1.271045E-01  1.680000E+09
                          (06,05)  3.620574E-02  2.249477E-02  5.870050E-02  7.263672E-01
       372 0001-01-01 06:12:00.00  1.270875E-01  2.157957E-05  1.271091E-01  1.680000E+09
                          (06,05)  3.620802E-02  2.249782E-02  5.870585E-02  7.264264E-01
       373 0001-01-01 06:13:00.00  1.270919E-01  2.168800E-05  1.271136E-01  1.680000E+09
                          (06,08)  3.621085E-02  2.250142E-02  5.871228E-02  7.264987E-01
       374 0001-01-01 06:14:00.00  1.270963E-01  2.176637E-05  1.271180E-01  1.680000E+09
                          (06,05)  3.621407E-02  2.250510E-02  5.871917E-02  7.265778E-01
       375 0001-01-01 06:15:00.00  1.271005E-01  2.180897E-05  1.271223E-01  1.680000E+09
                          (06,05)  3.621750E-02  2.250838E-02  5.872588E-02  7.266567E-01
       376 0001-01-01 06:16:00.00  1.271047E-01  2.181432E-05  1.271265E-01  1.680000E+09
                          (06,05)  3.622095E-02  2.251087E-02  5.873182E-02  7.267290E-01
[...]
                          (06,05)  3.628971E-02  2.250586E-02  5.879557E-02  7.277106E-01
      1057 0001-01-01 17:37:00.00  1.273954E-01  2.124951E-05  1.274166E-01  1.680000E+09
                          (06,05)  3.628971E-02  2.250585E-02  5.879556E-02  7.277105E-01
      1058 0001-01-01 17:38:00.00  1.273954E-01  2.124957E-05  1.274166E-01  1.680000E+09
                          (06,05)  3.628970E-02  2.250585E-02  5.879556E-02  7.277105E-01
      1059 0001-01-01 17:39:00.00  1.273954E-01  2.124964E-05  1.274166E-01  1.680000E+09
                          (06,05)  3.628971E-02  2.250585E-02  5.879556E-02  7.277105E-01
      1060 0001-01-01 17:40:00.00  1.273954E-01  2.124970E-05  1.274166E-01  1.680000E+09
                          (06,08)  3.628971E-02  2.250586E-02  5.879556E-02  7.277106E-01
      1061 0001-01-01 17:41:00.00  1.273954E-01  2.124973E-05  1.274166E-01  1.680000E+09
                          (06,05)  3.628971E-02  2.250586E-02  5.879557E-02  7.277107E-01
      1062 0001-01-01 17:42:00.00  1.273954E-01  2.124972E-05  1.274166E-01  1.680000E+09
                          (06,05)  3.628971E-02  2.250587E-02  5.879558E-02  7.277108E-01
      WRT_HIS     - wrote history     fields (Index=1)   in record = 0000060
      1063 0001-01-01 17:43:00.00  1.273954E-01  2.124967E-05  1.274166E-01  1.680000E+09
                          (06,05)  3.628972E-02  2.250588E-02  5.879559E-02  7.277109E-01
      1064 0001-01-01 17:44:00.00  1.273954E-01  2.124957E-05  1.274166E-01  1.680000E+09
                          (06,05)  3.628972E-02  2.250588E-02  5.879560E-02  7.277110E-01
      1065 0001-01-01 17:45:00.00  1.273954E-01  2.124943E-05  1.274166E-01  1.680000E+09
                          (06,05)  3.628972E-02  2.250589E-02  5.879561E-02  7.277110E-01
      1066 0001-01-01 17:46:00.00  1.273954E-01  2.124928E-05  1.274166E-01  1.680000E+09
                          (06,05)  3.628972E-02  2.250589E-02  5.879561E-02  7.277110E-01
      1067 0001-01-01 17:47:00.00  1.273954E-01  2.124914E-05  1.274166E-01  1.680000E+09
                          (06,05)  3.628972E-02  2.250588E-02  5.879560E-02  7.277110E-01
      1068 0001-01-01 17:48:00.00  1.273954E-01  2.124903E-05  1.274166E-01  1.680000E+09
                          (06,05)  3.628971E-02  2.250588E-02  5.879559E-02  7.277109E-01
      1069 0001-01-01 17:49:00.00  1.273954E-01  2.124897E-05  1.274166E-01  1.680000E+09
                          (06,05)  3.628971E-02  2.250587E-02  5.879558E-02  7.277107E-01
      1070 0001-01-01 17:50:00.00  1.273954E-01  2.124897E-05  1.274166E-01  1.680000E+09
                          (06,05)  3.628971E-02  2.250586E-02  5.879557E-02  7.277106E-01
      1071 0001-01-01 17:51:00.00  1.273954E-01  2.124904E-05  1.274166E-01  1.680000E+09
                          (06,05)  3.628970E-02  2.250586E-02  5.879556E-02  7.277105E-01
      1072 0001-01-01 17:52:00.00  1.273954E-01  2.124916E-05  1.274166E-01  1.680000E+09
                          (06,05)  3.628970E-02  2.250585E-02  5.879555E-02  7.277104E-01
      1073 0001-01-01 17:53:00.00  1.273954E-01  2.124933E-05  1.274166E-01  1.680000E+09
                          (06,05)  3.628970E-02  2.250585E-02  5.879555E-02  7.277103E-01
      1074 0001-01-01 17:54:00.00  1.273954E-01  2.124951E-05  1.274166E-01  1.680000E+09
                          (06,08)  3.628970E-02  2.250585E-02  5.879555E-02  7.277103E-01
      1075 0001-01-01 17:55:00.00  1.273954E-01  2.124969E-05  1.274166E-01  1.680000E+09
                          (06,08)  3.628970E-02  2.250586E-02  5.879555E-02  7.277104E-01
      1076 0001-01-01 17:56:00.00  1.273954E-01  2.124983E-05  1.274166E-01  1.680000E+09
                          (06,05)  3.628970E-02  2.250586E-02  5.879556E-02  7.277105E-01
      1077 0001-01-01 17:57:00.00  1.273954E-01  2.124993E-05  1.274166E-01  1.680000E+09
                          (06,05)  3.628970E-02  2.250587E-02  5.879557E-02  7.277106E-01
      1078 0001-01-01 17:58:00.00  1.273954E-01  2.124998E-05  1.274166E-01  1.680000E+09
                          (06,05)  3.628971E-02  2.250588E-02  5.879558E-02  7.277107E-01
      1079 0001-01-01 17:59:00.00  1.273954E-01  2.124996E-05  1.274166E-01  1.680000E+09
                          (06,05)  3.628971E-02  2.250588E-02  5.879559E-02  7.277108E-01
      1080 0001-01-01 18:00:00.00  1.273954E-01  2.124989E-05  1.274166E-01  1.680000E+09
                          (06,08)  3.628971E-02  2.250588E-02  5.879560E-02  7.277109E-01
      WRT_HIS     - wrote history     fields (Index=1)   in record = 0000061
      1081 0001-01-01 18:01:00.00  1.273954E-01  2.124979E-05  1.274166E-01  1.680000E+09
                          (06,08)  3.628972E-02  2.250588E-02  5.879560E-02  7.277109E-01
      1082 0001-01-01 18:02:00.00  1.273954E-01  2.124966E-05  1.274166E-01  1.680000E+09
                          (06,08)  3.628972E-02  2.250588E-02  5.879560E-02  7.277109E-01
      1083 0001-01-01 18:03:00.00  1.273954E-01  2.124954E-05  1.274166E-01  1.680000E+09
                          (06,08)  3.628972E-02  2.250588E-02  5.879559E-02  7.277109E-01
      1084 0001-01-01 18:04:00.00  1.273954E-01  2.124943E-05  1.274166E-01  1.680000E+09
                          (06,08)  3.628971E-02  2.250587E-02  5.879558E-02  7.277108E-01
      1085 0001-01-01 18:05:00.00  1.273954E-01  2.124936E-05  1.274166E-01  1.680000E+09
                          (06,05)  3.628971E-02  2.250586E-02  5.879558E-02  7.277107E-01
      1086 0001-01-01 18:06:00.00  1.273954E-01  2.124932E-05  1.274166E-01  1.680000E+09
                          (06,05)  3.628971E-02  2.250586E-02  5.879557E-02  7.277106E-01
      1087 0001-01-01 18:07:00.00  1.273954E-01  2.124932E-05  1.274166E-01  1.680000E+09
                          (06,08)  3.628971E-02  2.250586E-02  5.879556E-02  7.277106E-01
      1088 0001-01-01 18:08:00.00  1.273954E-01  2.124935E-05  1.274166E-01  1.680000E+09
                          (06,05)  3.628971E-02  2.250586E-02  5.879556E-02  7.277105E-01
      1089 0001-01-01 18:09:00.00  1.273954E-01  2.124939E-05  1.274166E-01  1.680000E+09
                          (06,08)  3.628971E-02  2.250586E-02  5.879556E-02  7.277106E-01
      1090 0001-01-01 18:10:00.00  1.273954E-01  2.124943E-05  1.274166E-01  1.680000E+09
                          (06,05)  3.628971E-02  2.250586E-02  5.879557E-02  7.277106E-01
      1091 0001-01-01 18:11:00.00  1.273954E-01  2.124946E-05  1.274166E-01  1.680000E+09
                          (06,08)  3.628971E-02  2.250587E-02  5.879558E-02  7.277107E-01
      1092 0001-01-01 18:12:00.00  1.273954E-01  2.124947E-05  1.274166E-01  1.680000E+09
                          (06,08)  3.628971E-02  2.250587E-02  5.879558E-02  7.277107E-01
      1093 0001-01-01 18:13:00.00  1.273954E-01  2.124946E-05  1.274166E-01  1.680000E+09
                          (06,08)  3.628971E-02  2.250588E-02  5.879559E-02  7.277108E-01
      1094 0001-01-01 18:14:00.00  1.273954E-01  2.124942E-05  1.274166E-01  1.680000E+09
                          (06,08)  3.628971E-02  2.250588E-02  5.879559E-02  7.277108E-01
      1095 0001-01-01 18:15:00.00  1.273954E-01  2.124936E-05  1.274166E-01  1.680000E+09
                          (06,08)  3.628971E-02  2.250588E-02  5.879559E-02  7.277108E-01
      1096 0001-01-01 18:16:00.00  1.273954E-01  2.124931E-05  1.274166E-01  1.680000E+09
                          (06,08)  3.628971E-02  2.250588E-02  5.879559E-02  7.277108E-01
      1097 0001-01-01 18:17:00.00  1.273954E-01  2.124927E-05  1.274166E-01  1.680000E+09
                          (06,08)  3.628971E-02  2.250588E-02  5.879559E-02  7.277108E-01
      1098 0001-01-01 18:18:00.00  1.273954E-01  2.124925E-05  1.274166E-01  1.680000E+09
                          (06,08)  3.628971E-02  2.250587E-02  5.879558E-02  7.277107E-01
      WRT_HIS     - wrote history     fields (Index=1)   in record = 0000062
      1099 0001-01-01 18:19:00.00  1.273954E-01  2.124927E-05  1.274166E-01  1.680000E+09
                          (06,08)  3.628971E-02  2.250586E-02  5.879557E-02  7.277106E-01
      1100 0001-01-01 18:20:00.00  1.273954E-01  2.124932E-05  1.274166E-01  1.680000E+09
                          (06,08)  3.628970E-02  2.250586E-02  5.879556E-02  7.277105E-01
      1101 0001-01-01 18:21:00.00  1.273954E-01  2.124941E-05  1.274166E-01  1.680000E+09
                          (06,08)  3.628970E-02  2.250586E-02  5.879556E-02  7.277105E-01
      1102 0001-01-01 18:22:00.00  1.273954E-01  2.124952E-05  1.274166E-01  1.680000E+09
                          (06,08)  3.628970E-02  2.250585E-02  5.879555E-02  7.277104E-01
      1103 0001-01-01 18:23:00.00  1.273954E-01  2.124964E-05  1.274166E-01  1.680000E+09
                          (06,08)  3.628970E-02  2.250585E-02  5.879556E-02  7.277104E-01
      1104 0001-01-01 18:24:00.00  1.273954E-01  2.124975E-05  1.274166E-01  1.680000E+09
                          (06,05)  3.628970E-02  2.250586E-02  5.879556E-02  7.277105E-01
      1105 0001-01-01 18:25:00.00  1.273954E-01  2.124984E-05  1.274166E-01  1.680000E+09
                          (06,08)  3.628970E-02  2.250586E-02  5.879557E-02  7.277106E-01
      1106 0001-01-01 18:26:00.00  1.273954E-01  2.124989E-05  1.274166E-01  1.680000E+09
                          (06,08)  3.628971E-02  2.250587E-02  5.879557E-02  7.277107E-01
      1107 0001-01-01 18:27:00.00  1.273954E-01  2.124989E-05  1.274166E-01  1.680000E+09
                          (06,05)  3.628971E-02  2.250587E-02  5.879558E-02  7.277107E-01
      1108 0001-01-01 18:28:00.00  1.273954E-01  2.124985E-05  1.274166E-01  1.680000E+09
                          (06,05)  3.628971E-02  2.250588E-02  5.879559E-02  7.277108E-01
      1109 0001-01-01 18:29:00.00  1.273954E-01  2.124976E-05  1.274166E-01  1.680000E+09
                          (06,05)  3.628971E-02  2.250588E-02  5.879560E-02  7.277109E-01
      1110 0001-01-01 18:30:00.00  1.273954E-01  2.124964E-05  1.274166E-01  1.680000E+09
                          (06,08)  3.628972E-02  2.250588E-02  5.879560E-02  7.277109E-01
      1111 0001-01-01 18:31:00.00  1.273954E-01  2.124951E-05  1.274166E-01  1.680000E+09
                          (06,08)  3.628972E-02  2.250588E-02  5.879560E-02  7.277109E-01
      1112 0001-01-01 18:32:00.00  1.273954E-01  2.124938E-05  1.274166E-01  1.680000E+09
                          (06,08)  3.628972E-02  2.250588E-02  5.879559E-02  7.277108E-01
      1113 0001-01-01 18:33:00.00  1.273954E-01  2.124928E-05  1.274166E-01  1.680000E+09
                          (06,08)  3.628971E-02  2.250587E-02  5.879558E-02  7.277108E-01
      1114 0001-01-01 18:34:00.00  1.273954E-01  2.124920E-05  1.274166E-01  1.680000E+09
                          (06,08)  3.628971E-02  2.250587E-02  5.879558E-02  7.277107E-01
      1115 0001-01-01 18:35:00.00  1.273954E-01  2.124917E-05  1.274166E-01  1.680000E+09
                          (06,08)  3.628971E-02  2.250586E-02  5.879557E-02  7.277106E-01
      1116 0001-01-01 18:36:00.00  1.273954E-01  2.124919E-05  1.274166E-01  1.680000E+09
                          (06,08)  3.628971E-02  2.250586E-02  5.879557E-02  7.277106E-01
      WRT_HIS     - wrote history     fields (Index=1)   in record = 0000063
      1117 0001-01-01 18:37:00.00  1.273954E-01  2.124923E-05  1.274166E-01  1.680000E+09
                          (06,08)  3.628970E-02  2.250586E-02  5.879556E-02  7.277105E-01
      1118 0001-01-01 18:38:00.00  1.273954E-01  2.124930E-05  1.274166E-01  1.680000E+09
                          (06,08)  3.628970E-02  2.250586E-02  5.879556E-02  7.277105E-01
      1119 0001-01-01 18:39:00.00  1.273954E-01  2.124939E-05  1.274166E-01  1.680000E+09
                          (06,08)  3.628970E-02  2.250586E-02  5.879556E-02  7.277105E-01
      1120 0001-01-01 18:40:00.00  1.273954E-01  2.124946E-05  1.274166E-01  1.680000E+09
                          (06,08)  3.628970E-02  2.250586E-02  5.879557E-02  7.277106E-01
      1121 0001-01-01 18:41:00.00  1.273954E-01  2.124952E-05  1.274166E-01  1.680000E+09
                          (06,08)  3.628971E-02  2.250587E-02  5.879557E-02  7.277106E-01
      1122 0001-01-01 18:42:00.00  1.273954E-01  2.124956E-05  1.274166E-01  1.680000E+09
                          (06,08)  3.628971E-02  2.250587E-02  5.879558E-02  7.277107E-01
      1123 0001-01-01 18:43:00.00  1.273954E-01  2.124957E-05  1.274166E-01  1.680000E+09
                          (06,08)  3.628971E-02  2.250588E-02  5.879558E-02  7.277107E-01
      1124 0001-01-01 18:44:00.00  1.273954E-01  2.124955E-05  1.274166E-01  1.680000E+09
                          (06,08)  3.628971E-02  2.250588E-02  5.879559E-02  7.277108E-01
      1125 0001-01-01 18:45:00.00  1.273954E-01  2.124952E-05  1.274166E-01  1.680000E+09
                          (06,08)  3.628971E-02  2.250588E-02  5.879559E-02  7.277108E-01
      1126 0001-01-01 18:46:00.00  1.273954E-01  2.124949E-05  1.274166E-01  1.680000E+09
                          (06,08)  3.628971E-02  2.250587E-02  5.879558E-02  7.277107E-01
      1127 0001-01-01 18:47:00.00  1.273954E-01  2.124946E-05  1.274166E-01  1.680000E+09
                          (06,08)  3.628971E-02  2.250587E-02  5.879558E-02  7.277107E-01
      1128 0001-01-01 18:48:00.00  1.273954E-01  2.124944E-05  1.274166E-01  1.680000E+09
                          (06,08)  3.628971E-02  2.250587E-02  5.879557E-02  7.277107E-01
      1129 0001-01-01 18:49:00.00  1.273954E-01  2.124945E-05  1.274166E-01  1.680000E+09
                          (06,08)  3.628971E-02  2.250586E-02  5.879557E-02  7.277106E-01
      1130 0001-01-01 18:50:00.00  1.273954E-01  2.124948E-05  1.274166E-01  1.680000E+09
                          (06,08)  3.628971E-02  2.250586E-02  5.879557E-02  7.277106E-01
      1131 0001-01-01 18:51:00.00  1.273954E-01  2.124953E-05  1.274166E-01  1.680000E+09
                          (06,08)  3.628971E-02  2.250586E-02  5.879556E-02  7.277105E-01
      1132 0001-01-01 18:52:00.00  1.273954E-01  2.124958E-05  1.274166E-01  1.680000E+09
                          (06,08)  3.628970E-02  2.250586E-02  5.879556E-02  7.277105E-01
      1133 0001-01-01 18:53:00.00  1.273954E-01  2.124964E-05  1.274166E-01  1.680000E+09
                          (06,08)  3.628971E-02  2.250586E-02  5.879557E-02  7.277106E-01
      1134 0001-01-01 18:54:00.00  1.273954E-01  2.124968E-05  1.274166E-01  1.680000E+09
                          (06,08)  3.628971E-02  2.250586E-02  5.879557E-02  7.277106E-01
      WRT_HIS     - wrote history     fields (Index=1)   in record = 0000064
      1135 0001-01-01 18:55:00.00  1.273954E-01  2.124970E-05  1.274166E-01  1.680000E+09
                          (06,08)  3.628971E-02  2.250587E-02  5.879558E-02  7.277107E-01
      1136 0001-01-01 18:56:00.00  1.273954E-01  2.124969E-05  1.274166E-01  1.680000E+09
                          (06,08)  3.628971E-02  2.250587E-02  5.879558E-02  7.277107E-01
      1137 0001-01-01 18:57:00.00  1.273954E-01  2.124965E-05  1.274166E-01  1.680000E+09
                          (06,08)  3.628971E-02  2.250588E-02  5.879559E-02  7.277108E-01
      1138 0001-01-01 18:58:00.00  1.273954E-01  2.124958E-05  1.274166E-01  1.680000E+09
                          (06,08)  3.628971E-02  2.250588E-02  5.879559E-02  7.277108E-01
      1139 0001-01-01 18:59:00.00  1.273954E-01  2.124950E-05  1.274166E-01  1.680000E+09
                          (06,08)  3.628971E-02  2.250588E-02  5.879559E-02  7.277108E-01
      1140 0001-01-01 19:00:00.00  1.273954E-01  2.124940E-05  1.274166E-01  1.680000E+09
                          (06,08)  3.628971E-02  2.250588E-02  5.879559E-02  7.277108E-01
      1141 0001-01-01 19:01:00.00  1.273954E-01  2.124932E-05  1.274166E-01  1.680000E+09
                          (06,08)  3.628971E-02  2.250587E-02  5.879559E-02  7.277108E-01
      1142 0001-01-01 19:02:00.00  1.273954E-01  2.124925E-05  1.274166E-01  1.680000E+09
                          (06,08)  3.628971E-02  2.250587E-02  5.879558E-02  7.277107E-01
      1143 0001-01-01 19:03:00.00  1.273954E-01  2.124922E-05  1.274166E-01  1.680000E+09
                          (06,08)  3.628971E-02  2.250587E-02  5.879558E-02  7.277107E-01
      1144 0001-01-01 19:04:00.00  1.273954E-01  2.124922E-05  1.274166E-01  1.680000E+09
                          (06,08)  3.628971E-02  2.250586E-02  5.879557E-02  7.277106E-01
      1145 0001-01-01 19:05:00.00  1.273954E-01  2.124925E-05  1.274166E-01  1.680000E+09
                          (06,08)  3.628971E-02  2.250586E-02  5.879557E-02  7.277106E-01
      1146 0001-01-01 19:06:00.00  1.273954E-01  2.124931E-05  1.274166E-01  1.680000E+09
                          (06,08)  3.628970E-02  2.250586E-02  5.879556E-02  7.277105E-01
      1147 0001-01-01 19:07:00.00  1.273954E-01  2.124939E-05  1.274166E-01  1.680000E+09
                          (06,08)  3.628970E-02  2.250586E-02  5.879556E-02  7.277105E-01
      1148 0001-01-01 19:08:00.00  1.273954E-01  2.124948E-05  1.274166E-01  1.680000E+09
                          (06,08)  3.628970E-02  2.250586E-02  5.879556E-02  7.277105E-01
      1149 0001-01-01 19:09:00.00  1.273954E-01  2.124955E-05  1.274166E-01  1.680000E+09
                          (06,08)  3.628970E-02  2.250586E-02  5.879557E-02  7.277106E-01
      1150 0001-01-01 19:10:00.00  1.273954E-01  2.124961E-05  1.274166E-01  1.680000E+09
                          (06,08)  3.628971E-02  2.250587E-02  5.879557E-02  7.277106E-01
      1151 0001-01-01 19:11:00.00  1.273954E-01  2.124964E-05  1.274166E-01  1.680000E+09
                          (06,08)  3.628971E-02  2.250587E-02  5.879558E-02  7.277107E-01
      1152 0001-01-01 19:12:00.00  1.273954E-01  2.124965E-05  1.274166E-01  1.680000E+09
                          (06,08)  3.628971E-02  2.250587E-02  5.879558E-02  7.277107E-01
      WRT_HIS     - wrote history     fields (Index=1)   in record = 0000065
      WRT_RST     - wrote re-start    fields (Index=1)   in record = 0000001

 Elapsed CPU time (seconds):

 Thread #    0 CPU:       0.138
 Total:                   0.138

 Nonlinear model elapsed CPU time profile, Grid: 01

  Allocation and array initialization ..............         0.000  ( 0.0790 %)
  Ocean state initialization .......................         0.000  ( 0.0471 %)
  Reading of input data ............................         0.001  ( 0.8593 %)
  Processing of input data .........................         0.002  ( 1.1783 %)
  Computation of vertical boundary conditions ......         0.004  ( 2.7794 %)
  Computation of global information integrals ......         0.034  (24.6367 %)
  Writing of output data ...........................         0.010  ( 7.0902 %)
  Model 2D kernel ..................................         0.034  (24.9463 %)
  Lagrangian floats trajectories ...................         0.037  (26.9818 %)
                                              Total:         0.122   88.5982

  Unique code regions profiled .....................         0.122   88.5982 %
  Residual, non-profiled code ......................         0.016   11.4018 %


 All percentages are with respect to total time =            0.138


>>>>>>>>>>>>>>>>>>>>>>>>>>>>>>>>>>>>>>>>>>>>>>>>>>>>>>>>>>>>>>>>>>>>>>>>>>>>>>>>

 Dynamic and Automatic memory (MB) usage for Grid 01:  14x12  tiling: 1x1

     tile          Dynamic        Automatic            USAGE

        0             1.26             0.10             1.36

    TOTAL             1.26             0.10             1.36

<<<<<<<<<<<<<<<<<<<<<<<<<<<<<<<<<<<<<<<<<<<<<<<<<<<<<<<<<<<<<<<<<<<<<<<<<<<<<<<<

 ROMS/TOMS - Output NetCDF summary for Grid 01:
             number of time records written in HISTORY file = 00000065
             number of time records written in RESTART file = 00000001

 Analytical header files used:

     ROMS/Functionals/ana_grid.h
     ROMS/Functionals/ana_initial.h
     ROMS/Functionals/ana_mask.h
     ROMS/Functionals/ana_smflux.h

 ROMS/TOMS: DONE... Thursday - January 31, 2019 - 11:28:48 AM
