--------------------------------------------------------------------------------
 Model Input Parameters:  ROMS/TOMS version 3.7  
                          Thursday - December 20, 2018 -  2:17:30 PM
--------------------------------------------------------------------------------

 Dog-bone Nesting Test Case: Refinement Grids

 Operating system : Linux
 CPU/hardware     : x86_64
 Compiler system  : gfortran
 Compiler command : /usr/bin/gfortran
 Compiler flags   : -frepack-arrays -O3 -ffast-math -

 Git Origin URL: git@github.com:hadfieldnz/roms-trunk-mgh.git
 Git Revision  : master commit 6b9943281af6cc72808febd71d340ff7044237ba
 Git Status    : The working tree is clean

 Host Name     : niwa-1019320.niwa.local
 Local Root    : /home/hadfield/ROMS/roms-trunk-mgh
 Header Dir    : /home/hadfield/ROMS/roms-test-mgh/dogbone/Refined
 Header file   : dogbone.h
 Analytical Dir: /home/hadfield/ROMS/roms-test-mgh/dogbone/Refined

 Resolution, Grid 01: 42x15x10,  Parallel Threads: 1,  Tiling: 1x1


 Physical Parameters, Grid: 01
 =============================

       1800  ntimes            Number of timesteps for 3-D equations.
      6.000  dt                Timestep size (s) for 3-D equations.
         30  ndtfast           Number of timesteps for 2-D equations between
                                 each 3D timestep.
          1  ERstr             Starting ensemble/perturbation run number.
          1  ERend             Ending ensemble/perturbation run number.
          0  nrrec             Number of restart records to read from disk.
          T  LcycleRST         Switch to recycle time-records in restart file.
         30  nRST              Number of timesteps between the writing of data
                                 into restart fields.
          1  ninfo             Number of timesteps between print of information
                                 to standard output.
          T  ldefout           Switch to create a new output NetCDF file(s).
         30  nHIS              Number of timesteps between the writing fields
                                 into history file.
          0  nQCK              Number of timesteps between the writing fields
                                 into quicksave file.
          1  ntsAVG            Starting timestep for the accumulation of output
                                 time-averaged data.
         30  nAVG              Number of timesteps between the writing of
                                 time-averaged data into averages file.
          F  LuvSponge         Turning OFF sponge on horizontal momentum.
          F  LtracerSponge(01) Turning OFF sponge on tracer 01: temp
          F  LtracerSponge(02) Turning OFF sponge on tracer 02: salt
 1.0000E-06  Akt_bak(01)       Background vertical mixing coefficient (m2/s)
                                 for tracer 01: temp
 1.0000E-06  Akt_bak(02)       Background vertical mixing coefficient (m2/s)
                                 for tracer 02: salt
 1.0000E-05  Akv_bak           Background vertical mixing coefficient (m2/s)
                                 for momentum.
 5.0000E-06  Akk_bak           Background vertical mixing coefficient (m2/s)
                                 for turbulent energy.
 5.0000E-06  Akp_bak           Background vertical mixing coefficient (m2/s)
                                 for turbulent generic statistical field.
      3.000  gls_p             GLS stability exponent.
      1.500  gls_m             GLS turbulent kinetic energy exponent.
     -1.000  gls_n             GLS turbulent length scale exponent.
 7.6000E-06  gls_Kmin          GLS minimum value of turbulent kinetic energy.
 1.0000E-12  gls_Pmin          GLS minimum value of dissipation.
 5.4770E-01  gls_cmu0          GLS stability coefficient.
 1.4400E+00  gls_c1            GLS shear production coefficient.
 1.9200E+00  gls_c2            GLS dissipation coefficient.
-4.0000E-01  gls_c3m           GLS stable buoyancy production coefficient.
 1.0000E+00  gls_c3p           GLS unstable buoyancy production coefficient.
 1.0000E+00  gls_sigk          GLS constant Schmidt number for TKE.
 1.3000E+00  gls_sigp          GLS constant Schmidt number for PSI.
   1400.000  charnok_alpha     Charnok factor for Zos calculation.
      0.500  zos_hsig_alpha    Factor for Zos calculation using Hsig(Awave).
      0.250  sz_alpha          Factor for Wave dissipation surface tke flux .
    100.000  crgban_cw         Factor for Craig/Banner surface tke flux.
 3.0000E-04  rdrg              Linear bottom drag coefficient (m/s).
 3.0000E-03  rdrg2             Quadratic bottom drag coefficient.
 2.0000E-02  Zob               Bottom roughness (m).
 2.0000E-02  Zos               Surface roughness (m).
          2  Vtransform        S-coordinate transformation equation.
          4  Vstretching       S-coordinate stretching function.
 0.0000E+00  theta_s           S-coordinate surface control parameter.
 0.0000E+00  theta_b           S-coordinate bottom  control parameter.
 1.0000E+16  Tcline            S-coordinate surface/bottom layer width (m) used
                                 in vertical coordinate stretching.
   1025.000  rho0              Mean density (kg/m3) for Boussinesq approximation.
      0.000  dstart            Time-stamp assigned to model initialization (days).
       0.00  time_ref          Reference time for units attribute (yyyymmdd.dd)
 0.0000E+00  Tnudg(01)         Nudging/relaxation time scale (days)
                                 for tracer 01: temp
 0.0000E+00  Tnudg(02)         Nudging/relaxation time scale (days)
                                 for tracer 02: salt
 0.0000E+00  Znudg             Nudging/relaxation time scale (days)
                                 for free-surface.
 0.0000E+00  M2nudg            Nudging/relaxation time scale (days)
                                 for 2D momentum.
 0.0000E+00  M3nudg            Nudging/relaxation time scale (days)
                                 for 3D momentum.
 0.0000E+00  obcfac            Factor between passive and active
                                 open boundary conditions.
          F  VolCons(1)        NLM western  edge boundary volume conservation.
          F  VolCons(2)        NLM southern edge boundary volume conservation.
          F  VolCons(3)        NLM eastern  edge boundary volume conservation.
          F  VolCons(4)        NLM northern edge boundary volume conservation.
     10.000  T0                Background potential temperature (C) constant.
     35.000  S0                Background salinity (PSU) constant.
   1027.000  R0                Background density (kg/m3) used in linear Equation
                                 of State.
 1.7000E-04  Tcoef             Thermal expansion coefficient (1/Celsius).
 7.6000E-04  Scoef             Saline contraction coefficient (1/PSU).
      1.000  gamma2            Slipperiness variable: free-slip (1.0) or 
                                                      no-slip (-1.0).
          F  LuvSrc            Turning OFF momentum point Sources/Sinks.
          F  LwSrc             Turning OFF volume influx point Sources/Sinks.
          F  LtracerSrc(01)    Turning OFF point Sources/Sinks on tracer 01: temp
          F  LtracerSrc(02)    Turning OFF point Sources/Sinks on tracer 02: salt
          F  LsshCLM           Turning OFF processing of SSH climatology.
          F  Lm2CLM            Turning OFF processing of 2D momentum climatology.
          F  Lm3CLM            Turning OFF processing of 3D momentum climatology.
          F  LtracerCLM(01)    Turning OFF processing of climatology tracer 01: temp
          F  LtracerCLM(02)    Turning OFF processing of climatology tracer 02: salt
          F  LnudgeM2CLM       Turning OFF nudging of 2D momentum climatology.
          F  LnudgeM3CLM       Turning OFF nudging of 3D momentum climatology.
          F  LnudgeTCLM(01)    Turning OFF nudging of climatology tracer 01: temp
          F  LnudgeTCLM(02)    Turning OFF nudging of climatology tracer 02: salt

          T  Hout(idFsur)      Write out free-surface.
          T  Hout(idUbar)      Write out 2D U-momentum component.
          T  Hout(idVbar)      Write out 2D V-momentum component.
          T  Hout(idUvel)      Write out 3D U-momentum component.
          T  Hout(idVvel)      Write out 3D V-momentum component.
          T  Hout(idWvel)      Write out W-momentum component.
          T  Hout(idOvel)      Write out omega vertical velocity.
          T  Hout(idTvar)      Write out tracer 01: temp
          T  Hout(idTvar)      Write out tracer 02: salt

          T  Aout(idFsur)      Write out averaged free-surface.
          T  Aout(idUbar)      Write out averaged 2D U-momentum component.
          T  Aout(idVbar)      Write out averaged 2D V-momentum component.
          T  Aout(idUvel)      Write out averaged 3D U-momentum component.
          T  Aout(idVvel)      Write out averaged 3D V-momentum component.
          T  Aout(idOvel)      Write out averaged omega vertical velocity.
          T  Aout(idTvar)      Write out averaged tracer 01: temp
          T  Aout(idTvar)      Write out averaged tracer 02: salt

 Output/Input Files:

             Output Restart File:  dogbone_rst_whole.nc
             Output History File:  dogbone_his_whole.nc
            Output Averages File:  dogbone_avg_whole.nc
                 Input Grid File:  ../Data/dogbone_grd_whole.nc
  Nesting grid connectivity File:  ../Data/dogbone_ngc_refined.nc
    Input Nonlinear Initial File:  ../Data/dogbone_ini_whole.nc

 Resolution, Grid 02: 48x15x10,  Parallel Threads: 1,  Tiling: 1x1


 Physical Parameters, Grid: 02
 =============================

       5400  ntimes            Number of timesteps for 3-D equations.
      2.000  dt                Timestep size (s) for 3-D equations.
         30  ndtfast           Number of timesteps for 2-D equations between
                                 each 3D timestep.
          1  ERstr             Starting ensemble/perturbation run number.
          1  ERend             Ending ensemble/perturbation run number.
          0  nrrec             Number of restart records to read from disk.
          T  LcycleRST         Switch to recycle time-records in restart file.
         90  nRST              Number of timesteps between the writing of data
                                 into restart fields.
          1  ninfo             Number of timesteps between print of information
                                 to standard output.
          T  ldefout           Switch to create a new output NetCDF file(s).
         90  nHIS              Number of timesteps between the writing fields
                                 into history file.
          0  nQCK              Number of timesteps between the writing fields
                                 into quicksave file.
          1  ntsAVG            Starting timestep for the accumulation of output
                                 time-averaged data.
         90  nAVG              Number of timesteps between the writing of
                                 time-averaged data into averages file.
          F  LuvSponge         Turning OFF sponge on horizontal momentum.
          F  LtracerSponge(01) Turning OFF sponge on tracer 01: temp
          F  LtracerSponge(02) Turning OFF sponge on tracer 02: salt
 1.0000E-06  Akt_bak(01)       Background vertical mixing coefficient (m2/s)
                                 for tracer 01: temp
 1.0000E-06  Akt_bak(02)       Background vertical mixing coefficient (m2/s)
                                 for tracer 02: salt
 1.0000E-05  Akv_bak           Background vertical mixing coefficient (m2/s)
                                 for momentum.
 5.0000E-06  Akk_bak           Background vertical mixing coefficient (m2/s)
                                 for turbulent energy.
 5.0000E-06  Akp_bak           Background vertical mixing coefficient (m2/s)
                                 for turbulent generic statistical field.
      3.000  gls_p             GLS stability exponent.
      1.500  gls_m             GLS turbulent kinetic energy exponent.
     -1.000  gls_n             GLS turbulent length scale exponent.
 7.6000E-06  gls_Kmin          GLS minimum value of turbulent kinetic energy.
 1.0000E-12  gls_Pmin          GLS minimum value of dissipation.
 5.4770E-01  gls_cmu0          GLS stability coefficient.
 1.4400E+00  gls_c1            GLS shear production coefficient.
 1.9200E+00  gls_c2            GLS dissipation coefficient.
-4.0000E-01  gls_c3m           GLS stable buoyancy production coefficient.
 1.0000E+00  gls_c3p           GLS unstable buoyancy production coefficient.
 1.0000E+00  gls_sigk          GLS constant Schmidt number for TKE.
 1.3000E+00  gls_sigp          GLS constant Schmidt number for PSI.
   1400.000  charnok_alpha     Charnok factor for Zos calculation.
      0.500  zos_hsig_alpha    Factor for Zos calculation using Hsig(Awave).
      0.250  sz_alpha          Factor for Wave dissipation surface tke flux .
    100.000  crgban_cw         Factor for Craig/Banner surface tke flux.
 3.0000E-04  rdrg              Linear bottom drag coefficient (m/s).
 3.0000E-03  rdrg2             Quadratic bottom drag coefficient.
 2.0000E-02  Zob               Bottom roughness (m).
 2.0000E-02  Zos               Surface roughness (m).
          2  Vtransform        S-coordinate transformation equation.
          4  Vstretching       S-coordinate stretching function.
 0.0000E+00  theta_s           S-coordinate surface control parameter.
 0.0000E+00  theta_b           S-coordinate bottom  control parameter.
 1.0000E+16  Tcline            S-coordinate surface/bottom layer width (m) used
                                 in vertical coordinate stretching.
   1025.000  rho0              Mean density (kg/m3) for Boussinesq approximation.
      0.000  dstart            Time-stamp assigned to model initialization (days).
       0.00  time_ref          Reference time for units attribute (yyyymmdd.dd)
 0.0000E+00  Tnudg(01)         Nudging/relaxation time scale (days)
                                 for tracer 01: temp
 0.0000E+00  Tnudg(02)         Nudging/relaxation time scale (days)
                                 for tracer 02: salt
 0.0000E+00  Znudg             Nudging/relaxation time scale (days)
                                 for free-surface.
 0.0000E+00  M2nudg            Nudging/relaxation time scale (days)
                                 for 2D momentum.
 0.0000E+00  M3nudg            Nudging/relaxation time scale (days)
                                 for 3D momentum.
 0.0000E+00  obcfac            Factor between passive and active
                                 open boundary conditions.
          F  VolCons(1)        NLM western  edge boundary volume conservation.
          F  VolCons(2)        NLM southern edge boundary volume conservation.
          F  VolCons(3)        NLM eastern  edge boundary volume conservation.
          F  VolCons(4)        NLM northern edge boundary volume conservation.
     10.000  T0                Background potential temperature (C) constant.
     35.000  S0                Background salinity (PSU) constant.
   1027.000  R0                Background density (kg/m3) used in linear Equation
                                 of State.
 1.7000E-04  Tcoef             Thermal expansion coefficient (1/Celsius).
 7.6000E-04  Scoef             Saline contraction coefficient (1/PSU).
      1.000  gamma2            Slipperiness variable: free-slip (1.0) or 
                                                      no-slip (-1.0).
          F  LuvSrc            Turning OFF momentum point Sources/Sinks.
          F  LwSrc             Turning OFF volume influx point Sources/Sinks.
          F  LtracerSrc(01)    Turning OFF point Sources/Sinks on tracer 01: temp
          F  LtracerSrc(02)    Turning OFF point Sources/Sinks on tracer 02: salt
          F  LsshCLM           Turning OFF processing of SSH climatology.
          F  Lm2CLM            Turning OFF processing of 2D momentum climatology.
          F  Lm3CLM            Turning OFF processing of 3D momentum climatology.
          F  LtracerCLM(01)    Turning OFF processing of climatology tracer 01: temp
          F  LtracerCLM(02)    Turning OFF processing of climatology tracer 02: salt
          F  LnudgeM2CLM       Turning OFF nudging of 2D momentum climatology.
          F  LnudgeM3CLM       Turning OFF nudging of 3D momentum climatology.
          F  LnudgeTCLM(01)    Turning OFF nudging of climatology tracer 01: temp
          F  LnudgeTCLM(02)    Turning OFF nudging of climatology tracer 02: salt

          T  Hout(idFsur)      Write out free-surface.
          T  Hout(idUbar)      Write out 2D U-momentum component.
          T  Hout(idVbar)      Write out 2D V-momentum component.
          T  Hout(idUvel)      Write out 3D U-momentum component.
          T  Hout(idVvel)      Write out 3D V-momentum component.
          T  Hout(idWvel)      Write out W-momentum component.
          T  Hout(idOvel)      Write out omega vertical velocity.
          T  Hout(idTvar)      Write out tracer 01: temp
          T  Hout(idTvar)      Write out tracer 02: salt

          T  Aout(idFsur)      Write out averaged free-surface.
          T  Aout(idUbar)      Write out averaged 2D U-momentum component.
          T  Aout(idVbar)      Write out averaged 2D V-momentum component.
          T  Aout(idUvel)      Write out averaged 3D U-momentum component.
          T  Aout(idVvel)      Write out averaged 3D V-momentum component.
          T  Aout(idOvel)      Write out averaged omega vertical velocity.
          T  Aout(idTvar)      Write out averaged tracer 01: temp
          T  Aout(idTvar)      Write out averaged tracer 02: salt

 Output/Input Files:

             Output Restart File:  dogbone_rst_href3.nc
             Output History File:  dogbone_his_href3.nc
            Output Averages File:  dogbone_avg_href3.nc
                 Input Grid File:  ../Data/dogbone_grd_href3.nc
  Nesting grid connectivity File:  ../Data/dogbone_ngc_refined.nc
    Input Nonlinear Initial File:  ../Data/dogbone_ini_href3.nc

 Tile partition information for Grid 01:  42x15x10  tiling: 1x1

     tile     Istr     Iend     Jstr     Jend     Npts

        0        1       42        1       15     6300

 Tile partition information for Grid 02:  48x15x10  tiling: 1x1

     tile     Istr     Iend     Jstr     Jend     Npts

        0        1       48        1       15     7200

 Tile minimum and maximum fractional coordinates for Grid 01:
   (interior points only)

     tile     Xmin     Xmax     Ymin     Ymax     grid

        0     0.50    43.50     0.50    15.50  RHO-points

        0     0.00    43.00     0.50    15.50    U-points

        0     0.50    43.50     0.00    15.00    V-points

 Tile minimum and maximum fractional coordinates for Grid 02:
   (interior points only)

     tile     Xmin     Xmax     Ymin     Ymax     grid

        0    -2.50    50.50    -2.50    17.50  RHO-points

        0    -3.00    50.00    -2.50    17.50    U-points

        0    -2.50    50.50    -3.00    17.00    V-points

 Lateral Boundary Conditions: NLM
 ============================

 Variable               Grid  West Edge    South Edge   East Edge    North Edge
 ---------              ----  ----------   ----------   ----------   ----------

 zeta                     1   Closed       Closed       Closed       Closed
                          2   Nested       Nested       Nested       Nested

 ubar                     1   Closed       Closed       Closed       Closed
                          2   Nested       Nested       Nested       Nested

 vbar                     1   Closed       Closed       Closed       Closed
                          2   Nested       Nested       Nested       Nested

 u                        1   Closed       Closed       Closed       Closed
                          2   Nested       Nested       Nested       Nested

 v                        1   Closed       Closed       Closed       Closed
                          2   Nested       Nested       Nested       Nested

 temp                     1   Closed       Closed       Closed       Closed
                          2   Nested       Nested       Nested       Nested

 salt                     1   Closed       Closed       Closed       Closed
                          2   Nested       Nested       Nested       Nested

 tke                      1   Closed       Closed       Closed       Closed
                          2   Nested       Nested       Nested       Nested

 Activated C-preprocessing Options:

 DOGBONE             Dog-bone Nesting Test Case: Refinement Grids
 ANA_BSFLUX          Analytical kinematic bottom salinity flux.
 ANA_BTFLUX          Analytical kinematic bottom temperature flux.
 ANA_SMFLUX          Analytical kinematic surface momentum flux.
 ANA_SSFLUX          Analytical kinematic surface salinity flux.
 ANA_STFLUX          Analytical kinematic surface temperature flux.
 ASSUMED_SHAPE       Using assumed-shape arrays.
 AVERAGES            Writing out time-averaged nonlinear model fields.
 DJ_GRADPS           Parabolic Splines density Jacobian (Shchepetkin, 2002).
 DOUBLE_PRECISION    Double precision arithmetic numerical kernel.
 GLS_MIXING          Generic Length-Scale turbulence closure.
 KANTHA_CLAYSON      Kantha and Clayson stability function formulation.
 MASKING             Land/Sea masking.
 NESTING             Nesting grids: Composite and Refinement.
 NONLINEAR           Nonlinear Model.
 !NONLIN_EOS         Linear Equation of State for seawater.
 N2S2_HORAVG         Horizontal smoothing of buoyancy and shear.
 !ONE_WAY            Two-way nesting in refinement grids.
 OUT_DOUBLE          Double precision output fields in NetCDF files.
 POWER_LAW           Power-law shape time-averaging barotropic filter.
 PROFILE             Time profiling activated .
 K_GSCHEME           Third-order upstream advection of TKE fields.
 !RST_SINGLE         Double precision fields in restart NetCDF file.
 SALINITY            Using salinity.
 SOLVE3D             Solving 3D Primitive Equations.
 SPLINES_VDIFF       Parabolic Spline Reconstruction for Vertical Diffusion.
 SPLINES_VVISC       Parabolic Spline Reconstruction for Vertical Viscosity.
 TS_U3HADVECTION     Third-order upstream horizontal advection of tracers.
 TS_C4VADVECTION     Fourth-order centered vertical advection of tracers.
 UV_ADV              Advection of momentum.
 UV_U3HADVECTION     Third-order upstream horizontal advection of 3D momentum.
 UV_C4VADVECTION     Fourth-order centered vertical advection of momentum.
 UV_QDRAG            Quadratic bottom stress.
 VAR_RHO_2D          Variable density barotropic mode.

 Process Information:

 Thread #    0 (pid=   24289) is active.

 INITIAL: Configuring and initializing forward nonlinear model ...
 *******

    GET_GRID    - angle between XI-axis and EAST: angler
                   (Grid = 01, File: ../Data/dogbone_grd_whole.nc)
                   (Min =  0.00000000E+00 Max =  0.00000000E+00)
    GET_GRID    - reciprocal XI-grid spacing: pm
                   (Grid = 01, File: ../Data/dogbone_grd_whole.nc)
                   (Min =  5.00000000E-03 Max =  5.00000000E-03)
    GET_GRID    - reciprocal ETA-grid spacing: pn
                   (Grid = 01, File: ../Data/dogbone_grd_whole.nc)
                   (Min =  2.00000000E-02 Max =  2.00000000E-02)
    GET_GRID    - Coriolis parameter at RHO-points: f
                   (Grid = 01, File: ../Data/dogbone_grd_whole.nc)
                   (Min =  1.45800000E-04 Max =  1.45800000E-04)
    GET_GRID    - bathymetry at RHO-points: h
                   (Grid = 01, File: ../Data/dogbone_grd_whole.nc)
                   (Min =  1.00000000E+01 Max =  1.00000000E+01)
    GET_GRID    - x-location of RHO-points: x-rho
                   (Grid = 01, File: ../Data/dogbone_grd_whole.nc)
                   (Min = -1.00000000E+02 Max =  8.50000000E+03)
    GET_GRID    - y-location of RHO-points: y_rho
                   (Grid = 01, File: ../Data/dogbone_grd_whole.nc)
                   (Min = -2.50000000E+01 Max =  7.75000000E+02)
    GET_GRID    - x-location of PSI-points: x_psi
                   (Grid = 01, File: ../Data/dogbone_grd_whole.nc)
                   (Min =  0.00000000E+00 Max =  8.40000000E+03)
    GET_GRID    - y-location of PSI-points: y-psi
                   (Grid = 01, File: ../Data/dogbone_grd_whole.nc)
                   (Min =  0.00000000E+00 Max =  7.50000000E+02)
    GET_GRID    - x-location of U-points: x_u
                   (Grid = 01, File: ../Data/dogbone_grd_whole.nc)
                   (Min =  0.00000000E+00 Max =  8.40000000E+03)
    GET_GRID    - y-location of U-points: y_u
                   (Grid = 01, File: ../Data/dogbone_grd_whole.nc)
                   (Min = -2.50000000E+01 Max =  7.75000000E+02)
    GET_GRID    - x-location of V-points: x_v
                   (Grid = 01, File: ../Data/dogbone_grd_whole.nc)
                   (Min = -1.00000000E+02 Max =  8.50000000E+03)
    GET_GRID    - y-location of V-points: y_v
                   (Grid = 01, File: ../Data/dogbone_grd_whole.nc)
                   (Min =  0.00000000E+00 Max =  7.50000000E+02)
    GET_GRID    - mask on RHO-points: mask_rho
                   (Grid = 01, File: ../Data/dogbone_grd_whole.nc)
                   (Min =  0.00000000E+00 Max =  1.00000000E+00)
    GET_GRID    - mask on PSI-points: mask_psi
                   (Grid = 01, File: ../Data/dogbone_grd_whole.nc)
                   (Min =  0.00000000E+00 Max =  1.00000000E+00)
    GET_GRID    - mask on U-points: mask_u
                   (Grid = 01, File: ../Data/dogbone_grd_whole.nc)
                   (Min =  0.00000000E+00 Max =  1.00000000E+00)
    GET_GRID    - mask on V-points: mask_v
                   (Grid = 01, File: ../Data/dogbone_grd_whole.nc)
                   (Min =  0.00000000E+00 Max =  1.00000000E+00)

    GET_GRID    - angle between XI-axis and EAST: angler
                   (Grid = 02, File: ../Data/dogbone_grd_href3.nc)
                   (Min =  0.00000000E+00 Max =  0.00000000E+00)
    GET_GRID    - reciprocal XI-grid spacing: pm
                   (Grid = 02, File: ../Data/dogbone_grd_href3.nc)
                   (Min =  1.50000000E-02 Max =  1.50000000E-02)
    GET_GRID    - reciprocal ETA-grid spacing: pn
                   (Grid = 02, File: ../Data/dogbone_grd_href3.nc)
                   (Min =  6.00000000E-02 Max =  6.00000000E-02)
    GET_GRID    - Coriolis parameter at RHO-points: f
                   (Grid = 02, File: ../Data/dogbone_grd_href3.nc)
                   (Min =  1.45800000E-04 Max =  1.45800000E-04)
    GET_GRID    - bathymetry at RHO-points: h
                   (Grid = 02, File: ../Data/dogbone_grd_href3.nc)
                   (Min =  1.00000000E+01 Max =  1.00000000E+01)
    GET_GRID    - x-location of RHO-points: x-rho
                   (Grid = 02, File: ../Data/dogbone_grd_href3.nc)
                   (Min =  2.56666667E+03 Max =  5.83333333E+03)
    GET_GRID    - y-location of RHO-points: y_rho
                   (Grid = 02, File: ../Data/dogbone_grd_href3.nc)
                   (Min =  2.41666667E+02 Max =  5.08333333E+02)
    GET_GRID    - x-location of PSI-points: x_psi
                   (Grid = 02, File: ../Data/dogbone_grd_href3.nc)
                   (Min =  2.60000000E+03 Max =  5.80000000E+03)
    GET_GRID    - y-location of PSI-points: y-psi
                   (Grid = 02, File: ../Data/dogbone_grd_href3.nc)
                   (Min =  2.50000000E+02 Max =  5.00000000E+02)
    GET_GRID    - x-location of U-points: x_u
                   (Grid = 02, File: ../Data/dogbone_grd_href3.nc)
                   (Min =  2.60000000E+03 Max =  5.80000000E+03)
    GET_GRID    - y-location of U-points: y_u
                   (Grid = 02, File: ../Data/dogbone_grd_href3.nc)
                   (Min =  2.41666667E+02 Max =  5.08333333E+02)
    GET_GRID    - x-location of V-points: x_v
                   (Grid = 02, File: ../Data/dogbone_grd_href3.nc)
                   (Min =  2.56666667E+03 Max =  5.83333333E+03)
    GET_GRID    - y-location of V-points: y_v
                   (Grid = 02, File: ../Data/dogbone_grd_href3.nc)
                   (Min =  2.50000000E+02 Max =  5.00000000E+02)
    GET_GRID    - mask on RHO-points: mask_rho
                   (Grid = 02, File: ../Data/dogbone_grd_href3.nc)
                   (Min =  0.00000000E+00 Max =  1.00000000E+00)
    GET_GRID    - mask on PSI-points: mask_psi
                   (Grid = 02, File: ../Data/dogbone_grd_href3.nc)
                   (Min =  0.00000000E+00 Max =  1.00000000E+00)
    GET_GRID    - mask on U-points: mask_u
                   (Grid = 02, File: ../Data/dogbone_grd_href3.nc)
                   (Min =  0.00000000E+00 Max =  1.00000000E+00)
    GET_GRID    - mask on V-points: mask_v
                   (Grid = 02, File: ../Data/dogbone_grd_href3.nc)
                   (Min =  0.00000000E+00 Max =  1.00000000E+00)

 Vertical S-coordinate System, Grid 01:

 level   S-coord     Cs-curve   Z   at hmin       at hc    half way     at hmax

    10   0.0000000   0.0000000        0.000       0.000       0.000       0.000
     9  -0.1000000  -0.0100000       -1.000      -1.000      -1.000      -1.000
     8  -0.2000000  -0.0400000       -2.000      -2.000      -2.000      -2.000
     7  -0.3000000  -0.0900000       -3.000      -3.000      -3.000      -3.000
     6  -0.4000000  -0.1600000       -4.000      -4.000      -4.000      -4.000
     5  -0.5000000  -0.2500000       -5.000      -5.000      -5.000      -5.000
     4  -0.6000000  -0.3600000       -6.000      -6.000      -6.000      -6.000
     3  -0.7000000  -0.4900000       -7.000      -7.000      -7.000      -7.000
     2  -0.8000000  -0.6400000       -8.000      -8.000      -8.000      -8.000
     1  -0.9000000  -0.8100000       -9.000      -9.000      -9.000      -9.000
     0  -1.0000000  -1.0000000      -10.000     -10.000     -10.000     -10.000

 Vertical S-coordinate System, Grid 02:

 level   S-coord     Cs-curve   Z   at hmin       at hc    half way     at hmax

    10   0.0000000   0.0000000        0.000       0.000       0.000       0.000
     9  -0.1000000  -0.0100000       -1.000      -1.000      -1.000      -1.000
     8  -0.2000000  -0.0400000       -2.000      -2.000      -2.000      -2.000
     7  -0.3000000  -0.0900000       -3.000      -3.000      -3.000      -3.000
     6  -0.4000000  -0.1600000       -4.000      -4.000      -4.000      -4.000
     5  -0.5000000  -0.2500000       -5.000      -5.000      -5.000      -5.000
     4  -0.6000000  -0.3600000       -6.000      -6.000      -6.000      -6.000
     3  -0.7000000  -0.4900000       -7.000      -7.000      -7.000      -7.000
     2  -0.8000000  -0.6400000       -8.000      -8.000      -8.000      -8.000
     1  -0.9000000  -0.8100000       -9.000      -9.000      -9.000      -9.000
     0  -1.0000000  -1.0000000      -10.000     -10.000     -10.000     -10.000

 Time Splitting Weights for Grid 01:    ndtfast =  30    nfast =  42
 ==================================

    Primary            Secondary            Accumulated to Current Step

  1-0.0008094437383769 0.0333333333333333-0.0008094437383769 0.0333333333333333
  2-0.0014053566728197 0.0333603147912792-0.0022148004111966 0.0666936481246126
  3-0.0017877524645903 0.0334071600137066-0.0040025528757869 0.1001008081383191
  4-0.0019566842408176 0.0334667517625262-0.0059592371166046 0.1335675599008453
  5-0.0019122901320372 0.0335319745705535-0.0078715272486418 0.1670995344713988
  6-0.0016548570247459 0.0335957175749547-0.0095263842733877 0.2006952520463536
  7-0.0011849025289723 0.0336508794757796-0.0107112868023600 0.2343461315221331
  8-0.0005032751608631 0.0336903762267453-0.0112145619632232 0.2680365077488784
  9 0.0003887272597151 0.0337071520654408-0.0108258347035081 0.3017436598143192
 10 0.0014892209965583 0.0336941944901169-0.0093366137069498 0.3354378543044362
 11 0.0027955815694920 0.0336445537902317-0.0065410321374578 0.3690824080946679
 12 0.0043042707117221 0.0335513677379153-0.0022367614257357 0.4026337758325831
 13 0.0060106451121704 0.0334078920475245 0.0037738836864347 0.4360416678801076
 14 0.0079087469427945 0.0332075372104522 0.0116826306292293 0.4692492050905598
 15 0.0099910761708920 0.0329439123123590 0.0216737068001212 0.5021931174029188
 16 0.0122483446563884 0.0326108764399960 0.0339220514565096 0.5348039938429148
 17 0.0146692120341107 0.0322025982847830 0.0485912634906203 0.5670065921276978
 18 0.0172400033810439 0.0317136245503127 0.0658312668716642 0.5987202166780105
 19 0.0199444086685725 0.0311389577709445 0.0857756755402367 0.6298591744489550
 20 0.0227631639997064 0.0304741441486588 0.1085388395399431 0.6603333185976138
 21 0.0256737146312910 0.0297153720153352 0.1342125541712341 0.6900486906129490
 22 0.0286498597812016 0.0288595815276255 0.1628624139524357 0.7189082721405746
 23 0.0316613792205220 0.0279045862015855 0.1945237931729577 0.7468128583421600
 24 0.0346736416507075 0.0268492068942347 0.2291974348236651 0.7736620652363948
 25 0.0376471948657328 0.0256934188392112 0.2668446296893979 0.7993554840756060
 26 0.0405373376992232 0.0244385123436867 0.3073819673886211 0.8237939964192927
 27 0.0432936737565711 0.0230872677537126 0.3506756411451922 0.8468812641730054
 28 0.0458596469320356 0.0216441452951603 0.3965352880772278 0.8685254094681656
 29 0.0481720587108284 0.0201154903974257 0.4447073467880562 0.8886408998655914
 30 0.0501605672561820 0.0185097551070648 0.4948679140442381 0.9071506549726561
 31 0.0517471682814030 0.0168377361985254 0.5466150823256412 0.9239883911711815
 32 0.0528456577069106 0.0151128305891453 0.5994607400325517 0.9391012217603267
 33 0.0533610761022577 0.0133513086655816 0.6528218161348094 0.9524525304259084
 34 0.0531891349131379 0.0115726061288397 0.7060109510479473 0.9640251365547481
 35 0.0522156244733761 0.0097996349650684 0.7582265755213234 0.9738247715198165
 36 0.0503158038019031 0.0080591141492892 0.8085423793232265 0.9818838856691057
 37 0.0473537721847153 0.0063819206892258 0.8558961515079418 0.9882658063583315
 38 0.0431818225418188 0.0048034616164019 0.8990779740497606 0.9930692679747335
 39 0.0376397765791564 0.0033640675316746 0.9367177506289170 0.9964333355064081
 40 0.0305543017255206 0.0021094083123694 0.9672720523544377 0.9985427438187775
 41 0.0217382098544505 0.0010909315881854 0.9890102622088881 0.9996336754069629
 42 0.0109897377911119 0.0003663245930371 1.0000000000000000 1.0000000000000000

 ndtfast, nfast =   30  42   nfast/ndtfast =  1.40000

 Centers of gravity and integrals (values must be 1, 1, approx 1/2, 1, 1):

    1.000000000000 1.047601458608 0.523800729304 1.000000000000 1.000000000000

 Power filter parameters, Fgamma, gamma =  0.28400   0.18933

 Time Splitting Weights for Grid 02:    ndtfast =  30    nfast =  42
 ==================================

    Primary            Secondary            Accumulated to Current Step

  1-0.0008094437383769 0.0333333333333333-0.0008094437383769 0.0333333333333333
  2-0.0014053566728197 0.0333603147912792-0.0022148004111966 0.0666936481246126
  3-0.0017877524645903 0.0334071600137066-0.0040025528757869 0.1001008081383191
  4-0.0019566842408176 0.0334667517625262-0.0059592371166046 0.1335675599008453
  5-0.0019122901320372 0.0335319745705535-0.0078715272486418 0.1670995344713988
  6-0.0016548570247459 0.0335957175749547-0.0095263842733877 0.2006952520463536
  7-0.0011849025289723 0.0336508794757796-0.0107112868023600 0.2343461315221331
  8-0.0005032751608631 0.0336903762267453-0.0112145619632232 0.2680365077488784
  9 0.0003887272597151 0.0337071520654408-0.0108258347035081 0.3017436598143192
 10 0.0014892209965583 0.0336941944901169-0.0093366137069498 0.3354378543044362
 11 0.0027955815694920 0.0336445537902317-0.0065410321374578 0.3690824080946679
 12 0.0043042707117221 0.0335513677379153-0.0022367614257357 0.4026337758325831
 13 0.0060106451121704 0.0334078920475245 0.0037738836864347 0.4360416678801076
 14 0.0079087469427945 0.0332075372104522 0.0116826306292293 0.4692492050905598
 15 0.0099910761708920 0.0329439123123590 0.0216737068001212 0.5021931174029188
 16 0.0122483446563884 0.0326108764399960 0.0339220514565096 0.5348039938429148
 17 0.0146692120341107 0.0322025982847830 0.0485912634906203 0.5670065921276978
 18 0.0172400033810439 0.0317136245503127 0.0658312668716642 0.5987202166780105
 19 0.0199444086685725 0.0311389577709445 0.0857756755402367 0.6298591744489550
 20 0.0227631639997064 0.0304741441486588 0.1085388395399431 0.6603333185976138
 21 0.0256737146312910 0.0297153720153352 0.1342125541712341 0.6900486906129490
 22 0.0286498597812016 0.0288595815276255 0.1628624139524357 0.7189082721405746
 23 0.0316613792205220 0.0279045862015855 0.1945237931729577 0.7468128583421600
 24 0.0346736416507075 0.0268492068942347 0.2291974348236651 0.7736620652363948
 25 0.0376471948657328 0.0256934188392112 0.2668446296893979 0.7993554840756060
 26 0.0405373376992232 0.0244385123436867 0.3073819673886211 0.8237939964192927
 27 0.0432936737565711 0.0230872677537126 0.3506756411451922 0.8468812641730054
 28 0.0458596469320356 0.0216441452951603 0.3965352880772278 0.8685254094681656
 29 0.0481720587108284 0.0201154903974257 0.4447073467880562 0.8886408998655914
 30 0.0501605672561820 0.0185097551070648 0.4948679140442381 0.9071506549726561
 31 0.0517471682814030 0.0168377361985254 0.5466150823256412 0.9239883911711815
 32 0.0528456577069106 0.0151128305891453 0.5994607400325517 0.9391012217603267
 33 0.0533610761022577 0.0133513086655816 0.6528218161348094 0.9524525304259084
 34 0.0531891349131379 0.0115726061288397 0.7060109510479473 0.9640251365547481
 35 0.0522156244733761 0.0097996349650684 0.7582265755213234 0.9738247715198165
 36 0.0503158038019031 0.0080591141492892 0.8085423793232265 0.9818838856691057
 37 0.0473537721847153 0.0063819206892258 0.8558961515079418 0.9882658063583315
 38 0.0431818225418188 0.0048034616164019 0.8990779740497606 0.9930692679747335
 39 0.0376397765791564 0.0033640675316746 0.9367177506289170 0.9964333355064081
 40 0.0305543017255206 0.0021094083123694 0.9672720523544377 0.9985427438187775
 41 0.0217382098544505 0.0010909315881854 0.9890102622088881 0.9996336754069629
 42 0.0109897377911119 0.0003663245930371 1.0000000000000000 1.0000000000000000

 ndtfast, nfast =   30  42   nfast/ndtfast =  1.40000

 Centers of gravity and integrals (values must be 1, 1, approx 1/2, 1, 1):

    1.000000000000 1.047601458608 0.523800729304 1.000000000000 1.000000000000

 Power filter parameters, Fgamma, gamma =  0.28400   0.18933

 Metrics information for Grid 01:
 ===============================

 Minimum X-grid spacing, DXmin =  2.00000000E-01 km
 Maximum X-grid spacing, DXmax =  2.00000000E-01 km
 Minimum Y-grid spacing, DYmin =  5.00000000E-02 km
 Maximum Y-grid spacing, DYmax =  5.00000000E-02 km
 Minimum Z-grid spacing, DZmin =  1.00000000E+00 m
 Maximum Z-grid spacing, DZmax =  1.00000000E+00 m

 Minimum barotropic Courant Number =  4.08374828E-02
 Maximum barotropic Courant Number =  4.08374828E-02
 Maximum Coriolis   Courant Number =  8.74800000E-04


 Metrics information for Grid 02:
 ===============================

 Minimum X-grid spacing, DXmin =  6.66666667E-02 km
 Maximum X-grid spacing, DXmax =  6.66666667E-02 km
 Minimum Y-grid spacing, DYmin =  1.66666667E-02 km
 Maximum Y-grid spacing, DYmax =  1.66666667E-02 km
 Minimum Z-grid spacing, DZmin =  1.00000000E+00 m
 Maximum Z-grid spacing, DZmax =  1.00000000E+00 m

 Minimum barotropic Courant Number =  4.08374828E-02
 Maximum barotropic Courant Number =  4.08374828E-02
 Maximum Coriolis   Courant Number =  2.91600000E-04


 Refined Nested Grid(s) Information: 
 ==================================

 Refined    Donor   Refined   Timestep   Refined
  Grid      Grid    Scale      Ratio   Timesteps

    02        01       03      3.00000      03

 WARNING: Usually the number of Refined Timesteps must be the same
          as the Refined Scale for numerical stability.


 NLM: GET_STATE - Reading state initial conditions,                       0001-01-01 00:00:00.00
                   (Grid 01, t = 0.0000, File: dogbone_ini_whole.nc, Rec=0001, Index=1)
                - free-surface
                   (Min =  0.00000000E+00 Max =  1.50000000E+00)
                - vertically integrated u-momentum component
                   (Min =  0.00000000E+00 Max =  0.00000000E+00)
                - vertically integrated v-momentum component
                   (Min =  0.00000000E+00 Max =  0.00000000E+00)
                - u-momentum component
                   (Min =  0.00000000E+00 Max =  0.00000000E+00)
                - v-momentum component
                   (Min =  0.00000000E+00 Max =  0.00000000E+00)
                - potential temperature
                   (Min =  5.00000000E+00 Max =  1.00000000E+01)
                - salinity
                   (Min =  3.50000000E+01 Max =  3.50000000E+01)

 NLM: GET_STATE - Reading state initial conditions,                       0001-01-01 00:00:00.00
                   (Grid 02, t = 0.0000, File: dogbone_ini_href3.nc, Rec=0001, Index=1)
                - free-surface
                   (Min =  0.00000000E+00 Max =  0.00000000E+00)
                - vertically integrated u-momentum component
                   (Min =  0.00000000E+00 Max =  0.00000000E+00)
                - vertically integrated v-momentum component
                   (Min =  0.00000000E+00 Max =  0.00000000E+00)
                - u-momentum component
                   (Min =  0.00000000E+00 Max =  0.00000000E+00)
                - v-momentum component
                   (Min =  0.00000000E+00 Max =  0.00000000E+00)
                - potential temperature
                   (Min =  1.00000000E+01 Max =  1.00000000E+01)
                - salinity
                   (Min =  3.50000000E+01 Max =  3.50000000E+01)

 Basin information for Grid 01:

 Maximum grid stiffness ratios:  rx0 =   0.000000E+00 (Beckmann and Haidvogel)
                                 rx1 =   8.881784E-16 (Haney)

 Initial domain volumes:  TotVolume =  4.9000000000E+07 m3
                         MinCellVol =  1.0000000000E+04 m3
                         MaxCellVol =  1.0000000000E+04 m3
                            Max/Min =  1.0000000000E+00

 Basin information for Grid 02:

 Maximum grid stiffness ratios:  rx0 =   0.000000E+00 (Beckmann and Haidvogel)
                                 rx1 =   8.881784E-16 (Haney)

 Initial domain volumes:  TotVolume =  8.0000000000E+06 m3
                         MinCellVol =  1.1111111111E+03 m3
                         MaxCellVol =  1.1111111111E+03 m3
                            Max/Min =  1.0000000000E+00

 NL ROMS/TOMS: started time-stepping: (Grid: 01 TimeSteps: 000000000001 - 000000001800)
 NL ROMS/TOMS: started time-stepping: (Grid: 02 TimeSteps: 000000000001 - 000000005400)


 TIME-STEP YYYY-MM-DD hh:mm:ss.ss  KINETIC_ENRG   POTEN_ENRG    TOTAL_ENRG    NET_VOLUME  Grid
                     C => (i,j,k)       Cu            Cv            Cw         Max Speed

         0 0001-01-01 00:00:00.00  0.000000E+00  4.938140E+01  4.938140E+01  6.356250E+07  01
                       (00,00,00)  0.000000E+00  0.000000E+00  0.000000E+00  0.000000E+00
      DEF_HIS     - creating  history      file, Grid 01: dogbone_his_whole.nc
      WRT_HIS     - wrote history     fields (Index=1,1) in record = 0000001               01
      DEF_AVG     - creating  average      file, Grid 01: dogbone_avg_whole.nc
      DEF_RST   - creating restart file: dogbone_rst_whole.nc
         0 0001-01-01 00:00:00.00  0.000000E+00  4.914571E+01  4.914571E+01  8.000000E+06  02
                       (00,00,00)  0.000000E+00  0.000000E+00  0.000000E+00  0.000000E+00
      DEF_HIS     - creating  history      file, Grid 02: dogbone_his_href3.nc
      WRT_HIS     - wrote history     fields (Index=1,1) in record = 0000001               02
      DEF_AVG     - creating  average      file, Grid 02: dogbone_avg_href3.nc
      DEF_RST   - creating restart file: dogbone_rst_href3.nc
         1 0001-01-01 00:00:02.00  3.209537E-50  4.914571E+01  4.914571E+01  8.000000E+06  02
                       (01,01,10)  3.880189E-26  1.548072E-31  0.000000E+00  1.753623E-24
         2 0001-01-01 00:00:04.00  3.242727E-50  4.914571E+01  4.914571E+01  8.000000E+06  02
                       (01,01,10)  4.030115E-26  1.574865E-31  6.749920E-25  1.758153E-24
      FINE2COARSE - exchanging data between grids: dg = 02 and rg = 01  at cr = 02
         1 0001-01-01 00:00:06.00  3.385808E-04  4.938070E+01  4.938103E+01  6.356250E+07  01
                       (05,01,01)  2.230836E-03  1.502286-101  0.000000E+00  7.436342E-02
         3 0001-01-01 00:00:06.00  3.291463E-50  4.914571E+01  4.914571E+01  8.000000E+06  02
                       (01,01,10)  4.167178E-26  1.664856E-31  6.465061E-25  1.764763E-24
         4 0001-01-01 00:00:08.00  1.044877E-40  4.914571E+01  4.914571E+01  8.000000E+06  02
                       (01,01,10)  2.213943E-21  8.935449E-26  6.204639E-25  1.000570E-19
         5 0001-01-01 00:00:10.00  1.055716E-40  4.914571E+01  4.914571E+01  8.000000E+06  02
                       (01,01,10)  2.299689E-21  9.093325E-26  3.851343E-20  1.003163E-19
      FINE2COARSE - exchanging data between grids: dg = 02 and rg = 01  at cr = 02
         2 0001-01-01 00:00:12.00  1.305422E-03  4.937874E+01  4.938004E+01  6.356250E+07  01
                       (06,01,10)  2.243265E-03  1.544889E-74  2.062589E-02  1.475251E-01
         6 0001-01-01 00:00:12.00  1.071594E-40  4.914571E+01  4.914571E+01  8.000000E+06  02
                       (01,01,10)  2.377875E-21  9.609628E-26  3.688422E-20  1.006937E-19
         7 0001-01-01 00:00:14.00  5.408531E-35  4.914571E+01  4.914571E+01  8.000000E+06  02
                       (01,01,10)  1.593056E-18  2.307635E-22  3.539859E-20  7.198659E-17
         8 0001-01-01 00:00:16.00  5.607634E-35  4.914571E+01  4.914571E+01  8.000000E+06  02
                       (01,01,10)  1.866515E-18  2.348338E-22  2.770505E-17  7.454173E-17
      FINE2COARSE - exchanging data between grids: dg = 02 and rg = 01  at cr = 02
         3 0001-01-01 00:00:18.00  2.779138E-03  4.937577E+01  4.937855E+01  6.356250E+07  01
                       (01,01,10)  2.842785E-03  2.394286E-74  3.935073E-02  2.209280E-01
         9 0001-01-01 00:00:18.00  6.287015E-35  4.914571E+01  4.914571E+01  8.000000E+06  02
                       (01,01,10)  2.106094E-18  2.481534E-22  2.559400E-17  7.780634E-17
        10 0001-01-01 00:00:20.00  7.248906E-31  4.914571E+01  4.914571E+01  8.000000E+06  02
                       (01,01,10)  1.852536E-16  6.805157E-20  2.078385E-17  8.335237E-15
        11 0001-01-01 00:00:22.00  7.643747E-31  4.914571E+01  4.914571E+01  8.000000E+06  02
                       (01,01,10)  2.069413E-16  6.925423E-20  3.195113E-15  8.449360E-15
      FINE2COARSE - exchanging data between grids: dg = 02 and rg = 01  at cr = 02
         4 0001-01-01 00:00:24.00  4.615382E-03  4.937208E+01  4.937669E+01  6.356250E+07  01
                       (01,01,10)  3.383734E-03  3.313509E-67  5.434135E-02  2.932779E-01
        12 0001-01-01 00:00:24.00  9.023393E-31  4.914571E+01  4.914571E+01  8.000000E+06  02
                       (01,15,10)  2.389892E-16  3.764973E-19  2.777865E-15  8.837932E-15
        13 0001-01-01 00:00:26.00  1.172749E-27  4.914571E+01  4.914571E+01  8.000000E+06  02
                       (01,01,10)  7.498957E-15  6.864876E-18  2.171386E-15  3.350105E-13
        14 0001-01-01 00:00:28.00  1.242543E-27  4.914571E+01  4.914571E+01  8.000000E+06  02
                       (01,01,10)  8.385825E-15  1.014768E-17  1.271670E-13  3.399594E-13
      FINE2COARSE - exchanging data between grids: dg = 02 and rg = 01  at cr = 02
         5 0001-01-01 00:00:30.00  6.682807E-03  4.936792E+01  4.937461E+01  6.356250E+07  01
                       (01,01,10)  3.680348E-03  2.152628E-58  6.472109E-02  3.632411E-01
        15 0001-01-01 00:00:30.00  1.473641E-27  4.914571E+01  4.914571E+01  8.000000E+06  02
                       (01,03,10)  9.666583E-15  6.171183E-18  1.103250E-13  3.557740E-13
        16 0001-01-01 00:00:32.00  4.951289E-25  4.914571E+01  4.914571E+01  8.000000E+06  02
                       (01,01,10)  1.556827E-13  2.043429E-16  8.593610E-14  6.877731E-12
        17 0001-01-01 00:00:34.00  5.283889E-25  4.914571E+01  4.914571E+01  8.000000E+06  02
                       (01,01,10)  1.741428E-13  2.721938E-16  2.573811E-12  6.992265E-12
      FINE2COARSE - exchanging data between grids: dg = 02 and rg = 01  at cr = 02
         6 0001-01-01 00:00:36.00  8.866451E-03  4.936353E+01  4.937240E+01  6.356250E+07  01
                       (01,01,10)  3.768450E-03  7.110244E-54  7.040002E-02  4.289327E-01
        18 0001-01-01 00:00:36.00  6.308644E-25  4.914571E+01  4.914571E+01  8.000000E+06  02
                       (01,02,10)  2.003589E-13  2.734547E-16  2.223126E-12  7.331521E-12
        19 0001-01-01 00:00:38.00  8.145455E-23  4.914571E+01  4.914571E+01  8.000000E+06  02
                       (01,01,10)  2.022201E-12  4.019406E-15  1.723839E-12  8.810137E-11
        20 0001-01-01 00:00:40.00  8.772615E-23  4.914571E+01  4.914571E+01  8.000000E+06  02
                       (01,01,10)  2.262112E-12  5.354363E-15  3.235597E-11  8.978063E-11
      FINE2COARSE - exchanging data between grids: dg = 02 and rg = 01  at cr = 02
         7 0001-01-01 00:00:42.00  1.105212E-02  4.935914E+01  4.937019E+01  6.356250E+07  01
                       (01,01,10)  3.710383E-03  3.483260E-47  7.206012E-02  4.880367E-01
        21 0001-01-01 00:00:42.00  1.055657E-22  4.914571E+01  4.914571E+01  8.000000E+06  02
                       (01,02,10)  2.596217E-12  5.397489E-15  2.779918E-11  9.435431E-11
        22 0001-01-01 00:00:44.00  6.656400E-21  4.914571E+01  4.914571E+01  8.000000E+06  02
                       (01,01,10)  1.853601E-11  5.310134E-14  2.142803E-11  7.949371E-10
        23 0001-01-01 00:00:46.00  7.244934E-21  4.914571E+01  4.914571E+01  8.000000E+06  02
                       (01,01,10)  2.072932E-11  7.018641E-14  2.853522E-10  8.122990E-10
      FINE2COARSE - exchanging data between grids: dg = 02 and rg = 01  at cr = 02
         8 0001-01-01 00:00:48.00  1.311990E-02  4.935497E+01  4.936809E+01  6.356250E+07  01
                       (01,01,10)  3.577730E-03  1.068361E-44  7.090502E-02  5.380398E-01
        24 0001-01-01 00:00:48.00  8.790012E-21  4.914571E+01  4.914571E+01  8.000000E+06  02
                       (01,02,10)  2.371989E-11  7.064287E-14  2.437004E-10  8.557619E-10
        25 0001-01-01 00:00:50.00  3.166280E-19  4.914571E+01  4.914571E+01  8.000000E+06  02
                       (01,01,10)  1.296774E-10  5.196188E-13  1.865831E-10  5.468634E-09
        26 0001-01-01 00:00:52.00  3.485664E-19  4.914571E+01  4.914571E+01  8.000000E+06  02
                       (01,01,10)  1.449196E-10  6.812270E-13  1.911803E-09  5.604555E-09
      FINE2COARSE - exchanging data between grids: dg = 02 and rg = 01  at cr = 02
         9 0001-01-01 00:00:54.00  1.495951E-02  4.935125E+01  4.936621E+01  6.356250E+07  01
                       (02,01,10)  1.066898E-02  2.456785E-37  6.668719E-02  5.765606E-01
        27 0001-01-01 00:00:54.00  4.262534E-19  4.914571E+01  4.914571E+01  8.000000E+06  02
                       (01,14,10)  1.652602E-10  6.844507E-13  1.622410E-09  5.918444E-09
        28 0001-01-01 00:00:56.00  9.779096E-18  4.914571E+01  4.914571E+01  8.000000E+06  02
                       (01,01,10)  7.307814E-10  4.016842E-12  1.233132E-09  3.029088E-08
        29 0001-01-01 00:00:58.00  1.089222E-17  4.914571E+01  4.914571E+01  8.000000E+06  02
                       (01,01,10)  8.157309E-10  5.222208E-12  1.028020E-08  3.113810E-08
      FINE2COARSE - exchanging data between grids: dg = 02 and rg = 01  at cr = 02
        10 0001-01-01 00:01:00.00  1.649519E-02  4.934813E+01  4.936462E+01  6.356250E+07  01
                       (02,01,10)  1.052505E-02  2.120733E-35  7.250806E-02  6.017505E-01
        30 0001-01-01 00:01:00.00  1.341513E-17  4.914571E+01  4.914571E+01  8.000000E+06  02
                       (01,14,10)  9.267277E-10  5.236387E-12  8.667794E-09  3.295324E-08
        31 0001-01-01 00:01:02.00  2.121115E-16  4.914571E+01  4.914571E+01  8.000000E+06  02
                       (01,01,10)  3.448157E-09  2.564392E-11  6.537920E-09  1.404889E-07
        32 0001-01-01 00:01:04.00  2.390086E-16  4.914571E+01  4.914571E+01  8.000000E+06  02
                       (01,01,10)  3.842836E-09  3.306086E-11  4.615471E-08  1.448534E-07
      FINE2COARSE - exchanging data between grids: dg = 02 and rg = 01  at cr = 02
        11 0001-01-01 00:01:06.00  1.770009E-02  4.934567E+01  4.936337E+01  6.356250E+07  01
                       (02,01,10)  1.027726E-02  1.984314E-35  7.388364E-02  6.127133E-01
        33 0001-01-01 00:01:06.00  2.961656E-16  4.914571E+01  4.914571E+01  8.000000E+06  02
                       (01,14,10)  4.348172E-09  3.307829E-11  3.866637E-08  1.535832E-07
        34 0001-01-01 00:01:08.00  3.424720E-15  4.914571E+01  4.914571E+01  8.000000E+06  02
                       (01,03,10)  1.401931E-08  3.824520E-11  2.905300E-08  5.616775E-07
        35 0001-01-01 00:01:10.00  3.902129E-15  4.914571E+01  4.914571E+01  8.000000E+06  02
                       (01,15,10)  1.559276E-08  1.783997E-10  1.781713E-07  5.808013E-07
      FINE2COARSE - exchanging data between grids: dg = 02 and rg = 01  at cr = 02
        12 0001-01-01 00:01:12.00  1.859202E-02  4.934383E+01  4.936242E+01  6.356250E+07  01
                       (02,01,10)  9.966776E-03  6.842086E-33  7.128029E-02  6.098219E-01
        36 0001-01-01 00:01:12.00  4.859013E-15  4.914571E+01  4.914571E+01  8.000000E+06  02
                       (01,14,10)  1.756893E-08  1.780696E-10  1.483338E-07  6.167326E-07
        37 0001-01-01 00:01:14.00  4.302671E-14  4.914571E+01  4.914571E+01  8.000000E+06  02
                       (01,03,10)  5.020063E-08  2.005898E-10  1.107253E-07  1.979064E-06
        38 0001-01-01 00:01:16.00  4.953559E-14  4.914571E+01  4.914571E+01  8.000000E+06  02
                       (01,01,10)  5.570401E-08  8.396224E-10  6.047816E-07  2.051956E-06
      FINE2COARSE - exchanging data between grids: dg = 02 and rg = 01  at cr = 02
        13 0001-01-01 00:01:18.00  1.921758E-02  4.934252E+01  4.936174E+01  6.356250E+07  01
                       (02,01,10)  9.610106E-03  5.206091E-21  6.574956E-02  5.947700E-01
        39 0001-01-01 00:01:18.00  6.190853E-14  4.914571E+01  4.914571E+01  8.000000E+06  02
                       (01,02,10)  6.249165E-08  8.359045E-10  5.004954E-07  2.181358E-06
        40 0001-01-01 00:01:20.00  4.354117E-13  4.914571E+01  4.914571E+01  8.000000E+06  02
                       (01,13,10)  1.610455E-07  9.216514E-10  3.712589E-07  6.252393E-06
        41 0001-01-01 00:01:22.00  5.060223E-13  4.914571E+01  4.914571E+01  8.000000E+06  02
                       (01,01,10)  1.782298E-07  3.506516E-09  1.836925E-06  6.498488E-06
      FINE2COARSE - exchanging data between grids: dg = 02 and rg = 01  at cr = 02
        14 0001-01-01 00:01:24.00  1.963479E-02  4.934163E+01  4.936126E+01  6.356250E+07  01
                       (02,01,10)  9.199800E-03  5.128808E-21  5.856730E-02  5.985008E-01
        42 0001-01-01 00:01:24.00  6.339557E-13  4.914571E+01  4.914571E+01  8.000000E+06  02
                       (01,02,10)  1.990662E-07  3.481217E-09  1.511602E-06  6.913437E-06
        43 0001-01-01 00:01:26.00  3.647638E-12  4.914571E+01  4.914571E+01  8.000000E+06  02
                       (01,03,10)  4.691818E-07  3.768843E-09  1.114648E-06  1.795508E-05
        44 0001-01-01 00:01:28.00  4.274658E-12  4.914571E+01  4.914571E+01  8.000000E+06  02
                       (01,15,10)  5.177554E-07  1.316976E-08  5.062343E-06  1.870183E-05
      FINE2COARSE - exchanging data between grids: dg = 02 and rg = 01  at cr = 02
        15 0001-01-01 00:01:30.00  1.989883E-02  4.934104E+01  4.936094E+01  6.356250E+07  01
                       (01,03,10)  3.195825E-03  2.708509E-19  6.190975E-02  6.039506E-01
        45 0001-01-01 00:01:30.00  5.362186E-12  4.914571E+01  4.914571E+01  8.000001E+06  02
                       (01,14,10)  5.757184E-07  1.303520E-08  4.143934E-06  1.990340E-05
        46 0001-01-01 00:01:32.00  2.586267E-11  4.914571E+01  4.914571E+01  8.000001E+06  02
                       (01,13,10)  1.255034E-06  1.388791E-08  3.038914E-06  4.738863E-05
        47 0001-01-01 00:01:34.00  3.052662E-11  4.914571E+01  4.914571E+01  8.000001E+06  02
                       (01,01,10)  1.380729E-06  4.496216E-08  1.280126E-05  4.944972E-05
      FINE2COARSE - exchanging data between grids: dg = 02 and rg = 01  at cr = 02
        16 0001-01-01 00:01:36.00  2.005210E-02  4.934068E+01  4.936073E+01  6.356250E+07  01
                       (01,04,10)  3.064414E-03  2.503726E-20  6.082429E-02  5.988026E-01
        48 0001-01-01 00:01:36.00  3.830030E-11  4.914572E+01  4.914572E+01  8.000002E+06  02
                       (01,02,10)  1.528492E-06  4.435799E-08  1.042854E-05  5.262791E-05
        49 0001-01-01 00:01:38.00  1.580311E-10  4.914572E+01  4.914572E+01  8.000002E+06  02
                       (01,13,10)  3.110304E-06  4.658479E-08  7.609240E-06  1.159912E-04
        50 0001-01-01 00:01:40.00  1.876484E-10  4.914573E+01  4.914573E+01  8.000003E+06  02
                       (01,15,10)  3.410845E-06  1.407776E-07  2.997682E-05  1.212174E-04
      FINE2COARSE - exchanging data between grids: dg = 02 and rg = 01  at cr = 02
        17 0001-01-01 00:01:42.00  2.012156E-02  4.934048E+01  4.936060E+01  6.356250E+07  01
                       (01,03,10)  2.839982E-03  6.914322E-18  5.827403E-02  5.990952E-01
        51 0001-01-01 00:01:42.00  2.352472E-10  4.914573E+01  4.914573E+01  8.000004E+06  02
                       (01,02,10)  3.759215E-06  1.384022E-07  2.431539E-05  1.289690E-04
        52 0001-01-01 00:01:44.00  8.447616E-10  4.914574E+01  4.914574E+01  8.000006E+06  02
                       (01,13,10)  7.195024E-06  1.434496E-07  1.766218E-05  2.652678E-04
        53 0001-01-01 00:01:46.00  1.007898E-09  4.914575E+01  4.914575E+01  8.000007E+06  02
                       (01,01,10)  7.864100E-06  4.072848E-07  6.550212E-05  2.775437E-04
      FINE2COARSE - exchanging data between grids: dg = 02 and rg = 01  at cr = 02
        18 0001-01-01 00:01:48.00  2.012545E-02  4.934041E+01  4.936054E+01  6.356250E+07  01
                       (04,01,10)  1.262859E-02  1.680591E-21  4.629927E-02  6.041862E-01
        54 0001-01-01 00:01:48.00  1.261445E-09  4.914576E+01  4.914576E+01  8.000009E+06  02
                       (01,02,10)  8.629467E-06  3.989282E-07  5.293152E-05  2.951145E-04
        55 0001-01-01 00:01:50.00  4.000505E-09  4.914579E+01  4.914579E+01  8.000013E+06  02
                       (01,03,10)  1.563405E-05  4.084523E-07  3.829841E-05  5.703862E-04
        56 0001-01-01 00:01:52.00  4.790415E-09  4.914581E+01  4.914581E+01  8.000017E+06  02
                       (01,15,10)  1.702982E-05  1.095861E-06  1.344088E-04  5.972838E-04
      FINE2COARSE - exchanging data between grids: dg = 02 and rg = 01  at cr = 02
        19 0001-01-01 00:01:54.00  2.008425E-02  4.934044E+01  4.936052E+01  6.356250E+07  01
                       (04,01,10)  1.148119E-02  5.326732E-21  4.884065E-02  6.000586E-01
        57 0001-01-01 00:01:54.00  5.980756E-09  4.914583E+01  4.914583E+01  8.000021E+06  02
                       (01,02,10)  1.860669E-05  1.069169E-06  1.082706E-04  6.345444E-04
        58 0001-01-01 00:01:56.00  1.696367E-08  4.914588E+01  4.914588E+01  8.000029E+06  02
                       (01,03,10)  3.207979E-05  1.082180E-06  7.808445E-05  1.159237E-03
        59 0001-01-01 00:01:58.00  2.036440E-08  4.914593E+01  4.914593E+01  8.000036E+06  02
                       (01,15,10)  3.482297E-05  2.757813E-06  2.603956E-04  1.214538E-03
      FINE2COARSE - exchanging data between grids: dg = 02 and rg = 01  at cr = 02
        20 0001-01-01 00:02:00.00  2.002534E-02  4.934049E+01  4.936052E+01  6.356250E+07  01
                       (04,01,10)  1.039078E-02  1.361980E-21  4.647674E-02  5.895626E-01
        60 0001-01-01 00:02:00.00  2.534458E-08  4.914598E+01  4.914598E+01  8.000044E+06  02
                       (01,14,10)  3.788583E-05  2.679562E-06  2.092294E-04  1.288872E-03
        61 0001-01-01 00:02:02.00  6.500039E-08  4.914607E+01  4.914607E+01  8.000059E+06  02
                       (01,13,10)  6.244297E-05  2.682724E-06  1.505130E-04  2.236896E-03
        62 0001-01-01 00:02:04.00  7.814603E-08  4.914616E+01  4.914616E+01  8.000074E+06  02
                       (01,01,10)  6.754535E-05  6.523728E-06  4.784599E-04  2.344115E-03
      FINE2COARSE - exchanging data between grids: dg = 02 and rg = 01  at cr = 02
        21 0001-01-01 00:02:06.00  1.997551E-02  4.934053E+01  4.936051E+01  6.356250E+07  01
                       (10,01,10)  9.225297E-03  9.429596E-12  4.914449E-02  5.966778E-01
        63 0001-01-01 00:02:06.00  9.689217E-08  4.914625E+01  4.914625E+01  8.000089E+06  02
                       (01,14,10)  7.317924E-05  6.311363E-06  3.837468E-04  2.484283E-03
        64 0001-01-01 00:02:08.00  2.268432E-07  4.914642E+01  4.914642E+01  8.000116E+06  02
                       (01,13,10)  1.157489E-04  6.253154E-06  2.755658E-04  4.113920E-03
        65 0001-01-01 00:02:10.00  2.728558E-07  4.914659E+01  4.914659E+01  8.000143E+06  02
                       (01,15,10)  1.247652E-04  1.457041E-05  8.370092E-04  4.310796E-03
      FINE2COARSE - exchanging data between grids: dg = 02 and rg = 01  at cr = 02
        22 0001-01-01 00:02:12.00  1.994828E-02  4.934052E+01  4.936047E+01  6.356250E+07  01
                       (10,15,10)  1.063098E-02  3.198427E-11  4.804996E-02  5.944323E-01
        66 0001-01-01 00:02:12.00  3.368646E-07  4.914676E+01  4.914676E+01  8.000171E+06  02
                       (01,14,10)  1.346160E-04  1.403313E-05  6.706002E-04  4.561622E-03
        67 0001-01-01 00:02:14.00  7.259688E-07  4.914705E+01  4.914705E+01  8.000218E+06  02
                       (01,13,10)  2.050119E-04  1.376459E-05  4.810866E-04  7.234811E-03
        68 0001-01-01 00:02:16.00  8.728775E-07  4.914735E+01  4.914735E+01  8.000266E+06  02
                       (01,15,10)  2.201967E-04  3.084646E-05  1.398568E-03  7.578403E-03
      FINE2COARSE - exchanging data between grids: dg = 02 and rg = 01  at cr = 02
        23 0001-01-01 00:02:18.00  1.993910E-02  4.934048E+01  4.936042E+01  6.356250E+07  01
                       (10,01,10)  1.194440E-02  1.003573E-10  4.430868E-02  5.827072E-01
        69 0001-01-01 00:02:18.00  1.072553E-06  4.914764E+01  4.914764E+01  8.000314E+06  02
                       (01,14,10)  2.366209E-04  2.957169E-05  1.120194E-03  8.005792E-03
        70 0001-01-01 00:02:20.00  2.143271E-06  4.914814E+01  4.914814E+01  8.000395E+06  02
                       (01,13,10)  3.479416E-04  2.872487E-05  8.035162E-04  1.220032E-02
        71 0001-01-01 00:02:22.00  2.573861E-06  4.914863E+01  4.914864E+01  8.000476E+06  02
                       (01,15,10)  3.723779E-04  6.211896E-05  2.237952E-03  1.277196E-02
      FINE2COARSE - exchanging data between grids: dg = 02 and rg = 01  at cr = 02
        24 0001-01-01 00:02:24.00  1.993367E-02  4.934042E+01  4.936036E+01  6.356250E+07  01
                       (11,01,10)  8.775924E-03  3.995481E-09  4.879151E-02  5.910291E-01
        72 0001-01-01 00:02:24.00  3.146464E-06  4.914913E+01  4.914913E+01  8.000556E+06  02
                       (01,14,10)  3.985563E-04  5.926799E-05  1.793475E-03  1.346730E-02
        73 0001-01-01 00:02:26.00  5.867518E-06  4.914994E+01  4.914994E+01  8.000687E+06  02
                       (02,13,10)  3.155496E-04  5.813921E-05  1.584374E-03  1.977456E-02
        74 0001-01-01 00:02:28.00  7.032527E-06  4.915074E+01  4.915075E+01  8.000818E+06  02
                       (01,15,10)  6.048575E-04  1.193694E-04  3.436640E-03  2.068337E-02
      FINE2COARSE - exchanging data between grids: dg = 02 and rg = 01  at cr = 02
        25 0001-01-01 00:02:30.00  1.992112E-02  4.934038E+01  4.936030E+01  6.356250E+07  01
                       (11,01,10)  1.024308E-02  1.018778E-08  4.954157E-02  5.915618E-01
        75 0001-01-01 00:02:30.00  8.550068E-06  4.915155E+01  4.915156E+01  8.000948E+06  02
                       (01,14,10)  6.448242E-04  1.133324E-04  2.757972E-03  2.176589E-02
        76 0001-01-01 00:02:32.00  1.496262E-05  4.915281E+01  4.915283E+01  8.001152E+06  02
                       (02,13,10)  5.197851E-04  1.101990E-04  2.497590E-03  3.086549E-02
        77 0001-01-01 00:02:34.00  1.788610E-05  4.915408E+01  4.915409E+01  8.001356E+06  02
                       (01,15,10)  9.455274E-04  2.194979E-04  5.072215E-03  3.224872E-02
      FINE2COARSE - exchanging data between grids: dg = 02 and rg = 01  at cr = 02
        26 0001-01-01 00:02:36.00  1.989978E-02  4.934036E+01  4.936026E+01  6.356250E+07  01
                       (11,15,10)  1.163979E-02  2.444259E-08  4.748036E-02  5.827062E-01
        78 0001-01-01 00:02:36.00  2.161996E-05  4.915534E+01  4.915536E+01  8.001561E+06  02
                       (01,14,10)  1.004053E-03  2.073467E-04  4.080041E-03  3.386391E-02
        79 0001-01-01 00:02:38.00  3.568069E-05  4.915725E+01  4.915729E+01  8.001869E+06  02
                       (02,13,10)  8.243687E-04  1.999244E-04  3.784852E-03  4.646654E-02
        80 0001-01-01 00:02:40.00  4.251212E-05  4.915917E+01  4.915921E+01  8.002177E+06  02
                       (01,15,10)  1.424711E-03  3.871880E-04  7.202312E-03  4.848446E-02
      FINE2COARSE - exchanging data between grids: dg = 02 and rg = 01  at cr = 02
        27 0001-01-01 00:02:42.00  1.987254E-02  4.934035E+01  4.936022E+01  6.356250E+07  01
                       (12,01,10)  8.302521E-03  5.363303E-07  4.771877E-02  5.854465E-01
        81 0001-01-01 00:02:42.00  5.107376E-05  4.916108E+01  4.916113E+01  8.002485E+06  02
                       (01,14,10)  1.506974E-03  3.638609E-04  5.812834E-03  5.079636E-02
        82 0001-01-01 00:02:44.00  7.983624E-05  4.916389E+01  4.916397E+01  8.002935E+06  02
                       (02,13,10)  1.260962E-03  3.480269E-04  5.520392E-03  6.754913E-02
        83 0001-01-01 00:02:46.00  9.475025E-05  4.916670E+01  4.916679E+01  8.003385E+06  02
                       (01,15,10)  2.071678E-03  6.566435E-04  9.843910E-03  7.037255E-02
      FINE2COARSE - exchanging data between grids: dg = 02 and rg = 01  at cr = 02
        28 0001-01-01 00:02:48.00  1.983922E-02  4.934035E+01  4.936018E+01  6.356250E+07  01
                       (12,01,10)  9.799271E-03  1.084898E-06  5.004019E-02  5.882038E-01
        84 0001-01-01 00:02:48.00  1.131021E-04  4.916951E+01  4.916962E+01  8.003835E+06  02
                       (01,14,10)  2.182682E-03  6.138056E-04  7.980594E-03  7.354755E-02
        85 0001-01-01 00:02:50.00  1.681072E-04  4.917351E+01  4.917367E+01  8.004471E+06  02
                       (02,13,10)  1.862703E-03  5.825930E-04  7.754820E-03  9.490294E-02
        86 0001-01-01 00:02:52.00  1.986071E-04  4.917750E+01  4.917770E+01  8.005108E+06  02
                       (01,15,10)  2.909494E-03  1.072749E-03  1.295112E-02  9.869089E-02
      FINE2COARSE - exchanging data between grids: dg = 02 and rg = 01  at cr = 02
        29 0001-01-01 00:02:54.00  1.979329E-02  4.934037E+01  4.936016E+01  6.356250E+07  01
                       (12,01,10)  1.124916E-02  2.089183E-06  4.968944E-02  5.821748E-01
        87 0001-01-01 00:02:54.00  2.354708E-04  4.918151E+01  4.918174E+01  8.005744E+06  02
                       (01,14,10)  3.053220E-03  9.973061E-04  1.056171E-02  1.028725E-01
        88 0001-01-01 00:02:56.00  3.339841E-04  4.918703E+01  4.918736E+01  8.006616E+06  02
                       (02,13,10)  2.659948E-03  9.395906E-04  1.049337E-02  1.289343E-01
        89 0001-01-01 00:02:58.00  3.925357E-04  4.919255E+01  4.919295E+01  8.007488E+06  02
                       (01,15,10)  3.948538E-03  1.691045E-03  1.639759E-02  1.338026E-01
      FINE2COARSE - exchanging data between grids: dg = 02 and rg = 01  at cr = 02
        30 0001-01-01 00:03:00.00  1.972292E-02  4.934044E+01  4.936016E+01  6.356250E+07  01
                       (12,01,10)  1.258901E-02  3.840160E-06  4.667854E-02  5.801026E-01
      WRT_HIS     - wrote history     fields (Index=1,1) in record = 0000002               01
      WRT_AVG     - wrote averaged    fields             in record = 0000001               01
      WRT_RST     - wrote re-start    fields (Index=1,1) in record = 0000001               01
        90 0001-01-01 00:03:00.00  4.620645E-04  4.919808E+01  4.919855E+01  8.008361E+06  02
                       (01,14,10)  4.126926E-03  1.563363E-03  1.347513E-02  1.390776E-01
      WRT_HIS     - wrote history     fields (Index=1,1) in record = 0000002               02
      WRT_AVG     - wrote averaged    fields             in record = 0000001               02
      WRT_RST     - wrote re-start    fields (Index=1,1) in record = 0000001               02
        91 0001-01-01 00:03:02.00  6.275746E-04  4.920550E+01  4.920612E+01  8.009520E+06  02
                       (02,13,10)  3.674368E-03  1.462233E-03  1.367313E-02  1.694527E-01
        92 0001-01-01 00:03:04.00  7.332713E-04  4.921292E+01  4.921365E+01  8.010680E+06  02
                       (01,15,10)  5.179689E-03  2.575799E-03  1.997177E-02  1.754357E-01
      FINE2COARSE - exchanging data between grids: dg = 02 and rg = 01  at cr = 02
        31 0001-01-01 00:03:06.00  1.961123E-02  4.934060E+01  4.936021E+01  6.356250E+07  01
                       (13,02,10)  8.943957E-03  1.264927E-04  5.243641E-02  5.839942E-01
        93 0001-01-01 00:03:06.00  8.566051E-04  4.922034E+01  4.922120E+01  8.011840E+06  02
                       (01,14,10)  5.391667E-03  2.367780E-03  1.657620E-02  1.817962E-01
        94 0001-01-01 00:03:08.00  1.117961E-03  4.923001E+01  4.923113E+01  8.013337E+06  02
                       (02,13,10)  4.912066E-03  2.198617E-03  1.714614E-02  2.154962E-01
        95 0001-01-01 00:03:10.00  1.297659E-03  4.923970E+01  4.924100E+01  8.014833E+06  02
                       (01,15,10)  6.568888E-03  3.795378E-03  2.339252E-02  2.225093E-01
      FINE2COARSE - exchanging data between grids: dg = 02 and rg = 01  at cr = 02
        32 0001-01-01 00:03:12.00  1.943421E-02  4.934088E+01  4.936031E+01  6.356250E+07  01
                       (13,02,10)  1.024306E-02  2.026507E-04  5.482009E-02  5.800329E-01
        96 0001-01-01 00:03:12.00  1.503732E-03  4.924940E+01  4.925090E+01  8.016330E+06  02
                       (01,14,10)  6.809770E-03  3.468719E-03  1.966666E-02  2.298198E-01
        97 0001-01-01 00:03:14.00  1.892647E-03  4.926167E+01  4.926356E+01  8.018206E+06  02
                       (02,13,10)  6.357096E-03  3.197076E-03  2.067746E-02  2.652600E-01
        98 0001-01-01 00:03:16.00  2.180853E-03  4.927396E+01  4.927614E+01  8.020082E+06  02
                       (01,15,10)  8.055218E-03  5.414301E-03  2.634680E-02  2.730739E-01
      FINE2COARSE - exchanging data between grids: dg = 02 and rg = 01  at cr = 02
        33 0001-01-01 00:03:18.00  1.916005E-02  4.934136E+01  4.936052E+01  6.356250E+07  01
                       (14,03,10)  4.280881E-03  2.368144E-03  6.132213E-02  5.749851E-01
        99 0001-01-01 00:03:18.00  2.505737E-03  4.928626E+01  4.928877E+01  8.021958E+06  02
                       (02,14,10)  7.433186E-03  4.979427E-03  2.402658E-02  2.811338E-01
       100 0001-01-01 00:03:20.00  3.053119E-03  4.930141E+01  4.930447E+01  8.024244E+06  02
                       (02,13,10)  7.967496E-03  4.498952E-03  2.396570E-02  3.161855E-01
       101 0001-01-01 00:03:22.00  3.490040E-03  4.931659E+01  4.932008E+01  8.026530E+06  02
                       (01,15,10)  9.554427E-03  7.481660E-03  2.854157E-02  3.248811E-01
      FINE2COARSE - exchanging data between grids: dg = 02 and rg = 01  at cr = 02
        34 0001-01-01 00:03:24.00  1.875409E-02  4.934210E+01  4.936086E+01  6.356250E+07  01
                       (14,06,10)  9.000377E-03  6.819584E-03  6.336806E-02  5.784126E-01
       102 0001-01-01 00:03:24.00  3.974369E-03  4.933178E+01  4.933575E+01  8.028817E+06  02
                       (02,14,10)  9.122567E-03  6.841020E-03  2.711592E-02  3.330199E-01
       103 0001-01-01 00:03:26.00  4.706676E-03  4.934998E+01  4.935469E+01  8.031527E+06  02
                       (02,13,10)  9.676042E-03  6.128968E-03  2.668688E-02  3.658301E-01
       104 0001-01-01 00:03:28.00  5.334344E-03  4.936821E+01  4.937354E+01  8.034238E+06  02
                       (01,15,10)  1.096861E-02  1.001656E-02  2.975379E-02  3.751718E-01
      FINE2COARSE - exchanging data between grids: dg = 02 and rg = 01  at cr = 02
        35 0001-01-01 00:03:30.00  1.818873E-02  4.934316E+01  4.936135E+01  6.356250E+07  01
                       (14,06,10)  1.055973E-02  9.040591E-03  6.986633E-02  5.745014E-01
       105 0001-01-01 00:03:30.00  6.018955E-03  4.938645E+01  4.939247E+01  8.036949E+06  02
                       (02,14,10)  1.085557E-02  9.102390E-03  2.937208E-02  3.827286E-01
       106 0001-01-01 00:03:32.00  6.955921E-03  4.940775E+01  4.941471E+01  8.040081E+06  02
                       (02,13,10)  1.139709E-02  8.084271E-03  2.855158E-02  4.117621E-01
       107 0001-01-01 00:03:34.00  7.812945E-03  4.942907E+01  4.943689E+01  8.043213E+06  02
                       (01,15,10)  1.220087E-02  1.299262E-02  2.986111E-02  4.209031E-01
      FINE2COARSE - exchanging data between grids: dg = 02 and rg = 01  at cr = 02
        36 0001-01-01 00:03:36.00  1.745254E-02  4.934457E+01  4.936202E+01  6.356250E+07  01
                       (14,06,10)  1.206179E-02  1.160754E-02  7.405223E-02  5.624993E-01
       108 0001-01-01 00:03:36.00  8.733543E-03  4.945041E+01  4.945914E+01  8.046345E+06  02
                       (02,14,10)  1.254113E-02  1.172995E-02  3.051848E-02  4.333131E-01
       109 0001-01-01 00:03:38.00  9.887790E-03  4.947470E+01  4.948458E+01  8.049875E+06  02
                       (02,13,10)  1.303887E-02  1.032441E-02  2.935748E-02  4.622599E-01
       110 0001-01-01 00:03:40.00  1.100379E-02  4.949900E+01  4.951001E+01  8.053405E+06  02
                       (03,15,10)  1.408334E-02  1.602767E-02  2.913039E-02  4.884802E-01
      FINE2COARSE - exchanging data between grids: dg = 02 and rg = 01  at cr = 02
        37 0001-01-01 00:03:42.00  1.655427E-02  4.934629E+01  4.936285E+01  6.356250E+07  01
                       (14,06,10)  1.343360E-02  1.443291E-02  7.544923E-02  5.550766E-01
       111 0001-01-01 00:03:42.00  1.218578E-02  4.952331E+01  4.953550E+01  8.056935E+06  02
                       (02,14,10)  1.409152E-02  1.463940E-02  3.038639E-02  5.101457E-01
       112 0001-01-01 00:03:44.00  1.356346E-02  4.955033E+01  4.956389E+01  8.060823E+06  02
                       (02,13,10)  1.451838E-02  1.276562E-02  2.902016E-02  5.388195E-01
       113 0001-01-01 00:03:46.00  1.495425E-02  4.957735E+01  4.959231E+01  8.064710E+06  02
                       (03,15,10)  1.617129E-02  1.949798E-02  2.828778E-02  5.639798E-01
      FINE2COARSE - exchanging data between grids: dg = 02 and rg = 01  at cr = 02
        38 0001-01-01 00:03:48.00  1.552250E-02  4.934828E+01  4.936380E+01  6.356250E+07  01
                       (14,06,10)  1.461523E-02  1.738031E-02  7.389913E-02  5.432017E-01
       114 0001-01-01 00:03:48.00  1.640873E-02  4.960437E+01  4.962078E+01  8.068598E+06  02
                       (03,02,10)  1.687069E-02  1.631802E-02  2.972219E-02  5.837475E-01
       115 0001-01-01 00:03:50.00  1.800956E-02  4.963371E+01  4.965172E+01  8.072787E+06  02
                       (03,13,10)  1.703123E-02  1.335694E-02  2.860435E-02  6.106309E-01
       116 0001-01-01 00:03:52.00  1.967389E-02  4.966305E+01  4.968272E+01  8.076977E+06  02
                       (03,02,10)  1.819695E-02  1.876074E-02  3.029992E-02  6.333707E-01
      FINE2COARSE - exchanging data between grids: dg = 02 and rg = 01  at cr = 02
        39 0001-01-01 00:03:54.00  1.440399E-02  4.935044E+01  4.936485E+01  6.356250E+07  01
                       (14,06,10)  1.556744E-02  2.027697E-02  6.957670E-02  5.535106E-01
       117 0001-01-01 00:03:54.00  2.139532E-02  4.969238E+01  4.971377E+01  8.081166E+06  02
                       (03,02,10)  1.886142E-02  1.913970E-02  2.720997E-02  6.504231E-01
       118 0001-01-01 00:03:56.00  2.321092E-02  4.972353E+01  4.974674E+01  8.085591E+06  02
                       (03,03,10)  1.885267E-02  1.549124E-02  2.633924E-02  6.739392E-01
       119 0001-01-01 00:03:58.00  2.512930E-02  4.975467E+01  4.977979E+01  8.090016E+06  02
                       (03,02,10)  2.003255E-02  2.142526E-02  2.773159E-02  6.940230E-01
      FINE2COARSE - exchanging data between grids: dg = 02 and rg = 01  at cr = 02
        40 0001-01-01 00:04:00.00  1.326201E-02  4.935265E+01  4.936591E+01  6.356250E+07  01
                       (14,06,10)  1.627460E-02  2.293785E-02  6.292973E-02  5.893640E-01
       120 0001-01-01 00:04:00.00  2.709502E-02  4.978578E+01  4.981288E+01  8.094440E+06  02
                       (03,02,10)  2.060687E-02  2.177943E-02  2.342673E-02  7.135167E-01
       121 0001-01-01 00:04:02.00  2.910614E-02  4.981816E+01  4.984727E+01  8.099027E+06  02
                       (03,03,10)  2.041866E-02  1.743101E-02  2.312601E-02  7.309910E-01
       122 0001-01-01 00:04:04.00  3.124193E-02  4.985051E+01  4.988176E+01  8.103614E+06  02
                       (03,02,10)  2.158540E-02  2.376115E-02  2.413867E-02  7.507094E-01
      FINE2COARSE - exchanging data between grids: dg = 02 and rg = 01  at cr = 02
        41 0001-01-01 00:04:06.00  1.217243E-02  4.935475E+01  4.936693E+01  6.356250E+07  01
                       (14,06,10)  1.674206E-02  2.519648E-02  5.456829E-02  6.301526E-01
       123 0001-01-01 00:04:06.00  3.341357E-02  4.988284E+01  4.991625E+01  8.108201E+06  02
                       (03,02,10)  2.205283E-02  2.408168E-02  1.872977E-02  7.668041E-01
       124 0001-01-01 00:04:08.00  3.558794E-02  4.991584E+01  4.995142E+01  8.112875E+06  02
                       (03,03,10)  2.169363E-02  1.906458E-02  1.928583E-02  7.806725E-01
       125 0001-01-01 00:04:10.00  3.789059E-02  4.994880E+01  4.998669E+01  8.117550E+06  02
                       (03,02,10)  2.281841E-02  2.564792E-02  1.986450E-02  7.962399E-01
      FINE2COARSE - exchanging data between grids: dg = 02 and rg = 01  at cr = 02
        42 0001-01-01 00:04:12.00  1.121516E-02  4.935659E+01  4.936781E+01  6.356250E+07  01
                       (14,06,10)  1.698889E-02  2.693430E-02  4.514139E-02  6.854249E-01
       126 0001-01-01 00:04:12.00  4.021703E-02  4.998173E+01  5.002195E+01  8.122224E+06  02
                       (03,02,10)  2.317079E-02  2.593102E-02  1.353649E-02  8.137415E-01
       127 0001-01-01 00:04:14.00  4.250947E-02  5.001475E+01  5.005726E+01  8.126914E+06  02
                       (03,15,10)  2.205648E-02  3.278269E-02  4.005932E-03  8.284910E-01
       128 0001-01-01 00:04:16.00  4.491927E-02  5.004773E+01  5.009265E+01  8.131605E+06  02
                       (03,02,10)  2.371779E-02  2.702518E-02  1.527638E-02  8.427959E-01
      FINE2COARSE - exchanging data between grids: dg = 02 and rg = 01  at cr = 02
        43 0001-01-01 00:04:18.00  1.046251E-02  4.935802E+01  4.936848E+01  6.356250E+07  01
                       (16,10,10)  1.688172E-02  6.940682E-06  6.924300E-02  7.317506E-01
       129 0001-01-01 00:04:18.00  4.734078E-02  5.008068E+01  5.012802E+01  8.136295E+06  02
                       (03,02,10)  2.395418E-02  2.727069E-02  8.263524E-03  8.558898E-01
[...]
      5349 0001-01-01 02:58:18.00  8.018381E-03  4.966328E+01  4.967130E+01  8.082610E+06  02
                       (03,14,04)  4.816809E-03  9.329150E-03  1.650593E-03  2.497334E-01
      5350 0001-01-01 02:58:20.00  7.909962E-03  4.966490E+01  4.967281E+01  8.082878E+06  02
                       (03,14,04)  4.847432E-03  9.360718E-03  1.988980E-03  2.504707E-01
      5351 0001-01-01 02:58:22.00  7.798490E-03  4.966655E+01  4.967435E+01  8.083147E+06  02
                       (03,14,04)  4.878009E-03  9.427163E-03  1.682743E-03  2.511954E-01
      FINE2COARSE - exchanging data between grids: dg = 02 and rg = 01  at cr = 02
      1784 0001-01-01 02:58:24.00  7.557093E-03  4.931222E+01  4.931978E+01  6.356250E+07  01
                       (21,06,10)  2.310080E-05  4.195906E-09  2.313378E-02  3.329629E-01
      5352 0001-01-01 02:58:24.00  7.678580E-03  4.966822E+01  4.967590E+01  8.083415E+06  02
                       (03,14,04)  4.908975E-03  9.458075E-03  1.577557E-03  2.519248E-01
      5353 0001-01-01 02:58:26.00  7.545947E-03  4.967034E+01  4.967788E+01  8.083751E+06  02
                       (03,14,04)  4.937343E-03  9.487761E-03  1.901116E-03  2.525857E-01
      5354 0001-01-01 02:58:28.00  7.412168E-03  4.967248E+01  4.967989E+01  8.084087E+06  02
                       (03,15,10)  4.668014E-03  1.087095E-02  7.281887E-04  2.532310E-01
      FINE2COARSE - exchanging data between grids: dg = 02 and rg = 01  at cr = 02
      1785 0001-01-01 02:58:30.00  7.577914E-03  4.931216E+01  4.931974E+01  6.356250E+07  01
                       (21,10,10)  4.358142E-04  1.124998E-09  2.306118E-02  3.346942E-01
      5355 0001-01-01 02:58:30.00  7.272674E-03  4.967463E+01  4.968190E+01  8.084424E+06  02
                       (03,14,04)  4.993898E-03  9.579595E-03  1.503893E-03  2.538797E-01
      5356 0001-01-01 02:58:32.00  7.123920E-03  4.967723E+01  4.968435E+01  8.084828E+06  02
                       (03,14,04)  5.019767E-03  9.607139E-03  1.806372E-03  2.544591E-01
      5357 0001-01-01 02:58:34.00  6.976450E-03  4.967983E+01  4.968681E+01  8.085232E+06  02
                       (03,15,10)  4.730682E-03  1.098218E-02  9.049927E-04  2.550217E-01
      FINE2COARSE - exchanging data between grids: dg = 02 and rg = 01  at cr = 02
      1786 0001-01-01 02:58:36.00  7.578425E-03  4.931214E+01  4.931972E+01  6.356250E+07  01
                       (10,09,06)  2.422881E-03  2.308361E-03  1.908758E-02  3.385584E-01
      5358 0001-01-01 02:58:36.00  6.826347E-03  4.968245E+01  4.968928E+01  8.085636E+06  02
                       (03,14,04)  5.071111E-03  9.692063E-03  1.430117E-03  2.555883E-01
      5359 0001-01-01 02:58:38.00  6.670638E-03  4.968550E+01  4.969217E+01  8.086108E+06  02
                       (03,14,04)  5.094553E-03  9.717445E-03  1.705821E-03  2.560876E-01
      5360 0001-01-01 02:58:40.00  6.518817E-03  4.968856E+01  4.969508E+01  8.086579E+06  02
                       (03,15,10)  4.785305E-03  1.108115E-02  1.081141E-03  2.565706E-01
      FINE2COARSE - exchanging data between grids: dg = 02 and rg = 01  at cr = 02
      1787 0001-01-01 02:58:42.00  7.564899E-03  4.931216E+01  4.931972E+01  6.356250E+07  01
                       (10,09,06)  2.743453E-03  2.309047E-03  1.910568E-02  3.411443E-01
      5361 0001-01-01 02:58:42.00  6.367436E-03  4.969162E+01  4.969799E+01  8.087051E+06  02
                       (03,15,10)  4.801382E-03  1.107643E-02  6.303959E-04  2.570596E-01
      5362 0001-01-01 02:58:44.00  6.213936E-03  4.969509E+01  4.970131E+01  8.087589E+06  02
                       (03,15,10)  4.817172E-03  1.113924E-02  9.063507E-04  2.574859E-01
      5363 0001-01-01 02:58:46.00  6.066707E-03  4.969857E+01  4.970464E+01  8.088127E+06  02
                       (03,15,10)  4.833081E-03  1.116791E-02  1.261609E-03  2.578977E-01
      FINE2COARSE - exchanging data between grids: dg = 02 and rg = 01  at cr = 02
      1788 0001-01-01 02:58:48.00  7.543044E-03  4.931218E+01  4.931973E+01  6.356250E+07  01
                       (10,09,06)  3.062941E-03  2.307892E-03  1.902756E-02  3.423923E-01
      5364 0001-01-01 02:58:48.00  5.922609E-03  4.970205E+01  4.970797E+01  8.088665E+06  02
                       (03,15,10)  4.847337E-03  1.116414E-02  8.850030E-04  2.583181E-01
      5365 0001-01-01 02:58:50.00  5.779398E-03  4.970593E+01  4.971171E+01  8.089268E+06  02
                       (03,15,10)  4.861488E-03  1.121833E-02  1.147559E-03  2.586825E-01
      5366 0001-01-01 02:58:52.00  5.644254E-03  4.970980E+01  4.971545E+01  8.089871E+06  02
                       (03,15,10)  4.875875E-03  1.124392E-02  1.454806E-03  2.590352E-01
      FINE2COARSE - exchanging data between grids: dg = 02 and rg = 01  at cr = 02
      1789 0001-01-01 02:58:54.00  7.517401E-03  4.931222E+01  4.931974E+01  6.356250E+07  01
                       (10,09,06)  3.371086E-03  2.304700E-03  1.883690E-02  3.422998E-01
      5367 0001-01-01 02:58:54.00  5.514250E-03  4.971367E+01  4.971919E+01  8.090474E+06  02
                       (03,15,10)  4.889006E-03  1.124106E-02  1.144749E-03  2.593990E-01
      5368 0001-01-01 02:58:56.00  5.387445E-03  4.971793E+01  4.972332E+01  8.091140E+06  02
                       (03,15,10)  4.902249E-03  1.128873E-02  1.394773E-03  2.597148E-01
      5369 0001-01-01 02:58:58.00  5.269650E-03  4.972218E+01  4.972745E+01  8.091806E+06  02
                       (03,15,10)  4.915882E-03  1.131198E-02  1.669570E-03  2.600216E-01
      FINE2COARSE - exchanging data between grids: dg = 02 and rg = 01  at cr = 02
      1790 0001-01-01 02:59:00.00  7.490841E-03  4.931226E+01  4.931975E+01  6.356250E+07  01
                       (10,09,06)  3.657273E-03  2.299676E-03  1.852163E-02  3.409188E-01
      5370 0001-01-01 02:59:00.00  5.158149E-03  4.972643E+01  4.973159E+01  8.092472E+06  02
                       (03,15,10)  4.928606E-03  1.130988E-02  1.410716E-03  2.603416E-01
      5371 0001-01-01 02:59:02.00  5.051381E-03  4.973105E+01  4.973610E+01  8.093200E+06  02
                       (03,15,10)  4.941659E-03  1.135392E-02  1.651118E-03  2.606212E-01
      5372 0001-01-01 02:59:04.00  4.953606E-03  4.973566E+01  4.974061E+01  8.093928E+06  02
                       (03,15,10)  4.955271E-03  1.137585E-02  1.914367E-03  2.608943E-01
      FINE2COARSE - exchanging data between grids: dg = 02 and rg = 01  at cr = 02
      1791 0001-01-01 02:59:06.00  7.464252E-03  4.931229E+01  4.931976E+01  6.356250E+07  01
                       (10,09,06)  3.911272E-03  2.293398E-03  1.807465E-02  3.383498E-01
      5373 0001-01-01 02:59:06.00  4.862407E-03  4.974027E+01  4.974513E+01  8.094655E+06  02
                       (03,15,10)  4.968222E-03  1.137424E-02  1.685815E-03  2.611803E-01
      5374 0001-01-01 02:59:08.00  4.776743E-03  4.974523E+01  4.975001E+01  8.095442E+06  02
                       (03,15,10)  4.981681E-03  1.141781E-02  1.921310E-03  2.614319E-01
      5375 0001-01-01 02:59:10.00  4.699161E-03  4.975019E+01  4.975489E+01  8.096229E+06  02
                       (03,15,10)  4.995852E-03  1.143950E-02  2.195979E-03  2.616775E-01
      FINE2COARSE - exchanging data between grids: dg = 02 and rg = 01  at cr = 02
      1792 0001-01-01 02:59:12.00  7.436432E-03  4.931233E+01  4.931977E+01  6.356250E+07  01
                       (10,09,06)  4.123975E-03  2.286709E-03  1.749707E-02  3.347315E-01
      5376 0001-01-01 02:59:12.00  4.627687E-03  4.975515E+01  4.975977E+01  8.097016E+06  02
                       (03,15,10)  5.009467E-03  1.143801E-02  1.975518E-03  2.619325E-01
      5377 0001-01-01 02:59:14.00  4.561981E-03  4.976045E+01  4.976501E+01  8.097860E+06  02
                       (03,15,10)  5.023682E-03  1.148394E-02  2.212427E-03  2.621550E-01
      5378 0001-01-01 02:59:16.00  4.502749E-03  4.976575E+01  4.977025E+01  8.098704E+06  02
                       (03,15,10)  5.038690E-03  1.150629E-02  2.519767E-03  2.623687E-01
      FINE2COARSE - exchanging data between grids: dg = 02 and rg = 01  at cr = 02
      1793 0001-01-01 02:59:18.00  7.404220E-03  4.931238E+01  4.931979E+01  6.356250E+07  01
                       (14,10,10)  4.139764E-03  9.571575E-03  1.096131E-02  3.343171E-01
      5379 0001-01-01 02:59:18.00  4.448635E-03  4.977104E+01  4.977549E+01  8.099548E+06  02
                       (03,15,10)  5.053067E-03  1.150460E-02  2.288993E-03  2.625840E-01
      5380 0001-01-01 02:59:20.00  4.400161E-03  4.977667E+01  4.978107E+01  8.100447E+06  02
                       (03,15,10)  5.067989E-03  1.155466E-02  2.534450E-03  2.627626E-01
      5381 0001-01-01 02:59:22.00  4.356143E-03  4.978230E+01  4.978666E+01  8.101345E+06  02
                       (03,15,10)  5.083646E-03  1.157818E-02  2.889780E-03  2.629247E-01
      FINE2COARSE - exchanging data between grids: dg = 02 and rg = 01  at cr = 02
      1794 0001-01-01 02:59:24.00  7.362796E-03  4.931245E+01  4.931981E+01  6.356250E+07  01
                       (14,10,10)  4.220618E-03  9.619021E-03  1.199020E-02  3.330664E-01
      5382 0001-01-01 02:59:24.00  4.316000E-03  4.978794E+01  4.979225E+01  8.102244E+06  02
                       (03,15,10)  5.098387E-03  1.157597E-02  2.639939E-03  2.630752E-01
      5383 0001-01-01 02:59:26.00  4.281210E-03  4.979389E+01  4.979817E+01  8.103194E+06  02
                       (03,15,10)  5.113408E-03  1.163022E-02  2.901298E-03  2.631780E-01
      5384 0001-01-01 02:59:28.00  4.248749E-03  4.979984E+01  4.980409E+01  8.104143E+06  02
                       (03,15,10)  5.128888E-03  1.165476E-02  3.309328E-03  2.632513E-01
      FINE2COARSE - exchanging data between grids: dg = 02 and rg = 01  at cr = 02
      1795 0001-01-01 02:59:30.00  7.306103E-03  4.931255E+01  4.931985E+01  6.356250E+07  01
                       (14,10,10)  4.301655E-03  9.670220E-03  1.311883E-02  3.303896E-01
      5385 0001-01-01 02:59:30.00  4.218912E-03  4.980580E+01  4.981002E+01  8.105093E+06  02
                       (03,15,10)  5.142943E-03  1.165187E-02  3.045677E-03  2.632949E-01
      5386 0001-01-01 02:59:32.00  4.194106E-03  4.981205E+01  4.981625E+01  8.106090E+06  02
                       (03,15,10)  5.156742E-03  1.170800E-02  3.328464E-03  2.632722E-01
      5387 0001-01-01 02:59:34.00  4.169663E-03  4.981831E+01  4.982248E+01  8.107087E+06  02
                       (03,15,10)  5.170430E-03  1.173257E-02  3.778529E-03  2.632016E-01
      FINE2COARSE - exchanging data between grids: dg = 02 and rg = 01  at cr = 02
      1796 0001-01-01 02:59:36.00  7.227320E-03  4.931269E+01  4.931992E+01  6.356250E+07  01
                       (14,10,10)  4.378615E-03  9.721405E-03  1.434526E-02  3.264202E-01
      5388 0001-01-01 02:59:36.00  4.146761E-03  4.982458E+01  4.982873E+01  8.108085E+06  02
                       (03,15,10)  5.181975E-03  1.172904E-02  3.523267E-03  2.630786E-01
      5389 0001-01-01 02:59:38.00  4.128548E-03  4.983112E+01  4.983525E+01  8.109123E+06  02
                       (03,15,10)  5.192416E-03  1.178193E-02  3.828480E-03  2.628643E-01
      5390 0001-01-01 02:59:40.00  4.109090E-03  4.983767E+01  4.984177E+01  8.110162E+06  02
                       (03,15,10)  5.201824E-03  1.180458E-02  4.290753E-03  2.625783E-01
      FINE2COARSE - exchanging data between grids: dg = 02 and rg = 01  at cr = 02
      1797 0001-01-01 02:59:42.00  7.119341E-03  4.931289E+01  4.932001E+01  6.356250E+07  01
                       (14,10,10)  4.445321E-03  9.765699E-03  1.565647E-02  3.213474E-01
      5391 0001-01-01 02:59:42.00  4.090342E-03  4.984422E+01  4.984831E+01  8.111201E+06  02
                       (03,15,10)  5.208213E-03  1.180075E-02  4.084614E-03  2.622132E-01
      5392 0001-01-01 02:59:44.00  4.075830E-03  4.985100E+01  4.985508E+01  8.112274E+06  02
                       (03,15,10)  5.212333E-03  1.184231E-02  4.406488E-03  2.617260E-01
      5393 0001-01-01 02:59:46.00  4.058957E-03  4.985780E+01  4.986186E+01  8.113347E+06  02
                       (03,15,10)  5.214121E-03  1.186008E-02  4.830066E-03  2.611378E-01
      FINE2COARSE - exchanging data between grids: dg = 02 and rg = 01  at cr = 02
      1798 0001-01-01 02:59:48.00  6.975264E-03  4.931317E+01  4.932014E+01  6.356250E+07  01
                       (14,10,10)  4.493654E-03  9.793045E-03  1.702614E-02  3.153710E-01
      5394 0001-01-01 02:59:48.00  4.042233E-03  4.986460E+01  4.986865E+01  8.114420E+06  02
                       (03,15,10)  5.211939E-03  1.185662E-02  4.732728E-03  2.604402E-01
      5395 0001-01-01 02:59:50.00  4.029011E-03  4.987158E+01  4.987560E+01  8.115517E+06  02
                       (03,15,10)  5.206026E-03  1.187579E-02  5.057766E-03  2.595849E-01
      5396 0001-01-01 02:59:52.00  4.012910E-03  4.987856E+01  4.988258E+01  8.116614E+06  02
                       (03,15,10)  5.196104E-03  1.188475E-02  5.372038E-03  2.585938E-01
      FINE2COARSE - exchanging data between grids: dg = 02 and rg = 01  at cr = 02
      1799 0001-01-01 02:59:54.00  6.788922E-03  4.931352E+01  4.932031E+01  6.356250E+07  01
                       (14,10,10)  4.513664E-03  9.790433E-03  1.841206E-02  3.086840E-01
      5397 0001-01-01 02:59:54.00  3.996649E-03  4.988556E+01  4.988956E+01  8.117711E+06  02
                       (03,15,10)  5.181291E-03  1.188275E-02  5.461951E-03  2.574596E-01
      5398 0001-01-01 02:59:56.00  3.982723E-03  4.989265E+01  4.989663E+01  8.118818E+06  02
                       (03,15,10)  5.161027E-03  1.186575E-02  5.768669E-03  2.561297E-01
      5399 0001-01-01 02:59:58.00  3.966102E-03  4.989976E+01  4.990372E+01  8.119926E+06  02
                       (03,15,10)  5.134723E-03  1.186117E-02  5.886094E-03  2.546243E-01
      FINE2COARSE - exchanging data between grids: dg = 02 and rg = 01  at cr = 02
      1800 0001-01-01 03:00:00.00  6.555506E-03  4.931398E+01  4.932053E+01  6.356250E+07  01
                       (14,10,10)  4.493938E-03  9.742370E-03  1.975519E-02  3.014580E-01
      WRT_HIS     - wrote history     fields (Index=1,1) in record = 0000061               01
      WRT_AVG     - wrote averaged    fields             in record = 0000060               01
      WRT_RST     - wrote re-start    fields (Index=1,1) in record = 0000002               01
      5400 0001-01-01 03:00:00.00  3.949282E-03  4.990688E+01  4.991083E+01  8.121033E+06  02
                       (03,15,10)  5.102754E-03  1.186211E-02  6.258315E-03  2.529407E-01
      WRT_HIS     - wrote history     fields (Index=1,1) in record = 0000061               02
      WRT_AVG     - wrote averaged    fields             in record = 0000060               02
      WRT_RST     - wrote re-start    fields (Index=1,1) in record = 0000002               02

 Elapsed CPU time (seconds):

 Thread #    0 CPU:      49.855
 Total:                  49.855

 Nonlinear model elapsed CPU time profile, Grid: 01

  Allocation and array initialization ..............         0.005  ( 0.0099 %)
  Ocean state initialization .......................         0.001  ( 0.0017 %)
  Reading of input data ............................         0.003  ( 0.0059 %)
  Processing of input data .........................         0.009  ( 0.0178 %)
  Processing of output time averaged data ..........         0.074  ( 0.1492 %)
  Computation of vertical boundary conditions ......         0.014  ( 0.0280 %)
  Computation of global information integrals ......         0.145  ( 0.2904 %)
  Writing of output data ...........................         0.117  ( 0.2345 %)
  Model 2D kernel ..................................         4.137  ( 8.2982 %)
  2D/3D coupling, vertical metrics .................         0.119  ( 0.2379 %)
  Omega vertical velocity ..........................         0.064  ( 0.1293 %)
  Equation of state for seawater ...................         0.083  ( 0.1660 %)
  GLS vertical mixing parameterization .............         3.613  ( 7.2464 %)
  3D equations right-side terms ....................         0.262  ( 0.5261 %)
  3D equations predictor step ......................         0.437  ( 0.8770 %)
  Pressure gradient ................................         0.216  ( 0.4336 %)
  Corrector time-step for 3D momentum ..............         0.344  ( 0.6907 %)
  Corrector time-step for tracers ..................         0.371  ( 0.7435 %)
  Nesting algorithm ................................         0.153  ( 0.3075 %)
  Reading model state vector .......................         0.001  ( 0.0013 %)
                                              Total:        10.168   20.3949

 Nonlinear model elapsed CPU time profile, Grid: 02

  Allocation and array initialization ..............         0.005  ( 0.0099 %)
  Ocean state initialization .......................         0.001  ( 0.0017 %)
  Reading of input data ............................         0.006  ( 0.0129 %)
  Processing of input data .........................         0.031  ( 0.0622 %)
  Processing of output time averaged data ..........         0.250  ( 0.5016 %)
  Computation of vertical boundary conditions ......         0.037  ( 0.0737 %)
  Computation of global information integrals ......         0.467  ( 0.9372 %)
  Writing of output data ...........................         0.132  ( 0.2654 %)
  Model 2D kernel ..................................        14.536  (29.1574 %)
  2D/3D coupling, vertical metrics .................         0.320  ( 0.6412 %)
  Omega vertical velocity ..........................         0.203  ( 0.4065 %)
  Equation of state for seawater ...................         0.352  ( 0.7051 %)
  GLS vertical mixing parameterization .............        12.562  (25.1979 %)
  3D equations right-side terms ....................         0.934  ( 1.8726 %)
  3D equations predictor step ......................         1.350  ( 2.7081 %)
  Pressure gradient ................................         0.715  ( 1.4333 %)
  Corrector time-step for 3D momentum ..............         1.227  ( 2.4610 %)
  Corrector time-step for tracers ..................         1.233  ( 2.4733 %)
  Nesting algorithm ................................         1.446  ( 2.8999 %)
  Reading model state vector .......................         0.001  ( 0.0014 %)
                                              Total:        35.807   71.8221

  Unique code regions profiled .....................        45.975   92.2170 %
  Residual, non-profiled code ......................         3.880    7.7830 %


 All percentages are with respect to total time =           49.855


>>>>>>>>>>>>>>>>>>>>>>>>>>>>>>>>>>>>>>>>>>>>>>>>>>>>>>>>>>>>>>>>>>>>>>>>>>>>>>>>

 Dynamic and Automatic memory (MB) usage for Grid 01:  42x15x10  tiling: 1x1

     tile          Dynamic        Automatic            USAGE

        0             5.96             0.64             6.60

      SUM             5.96             0.64             6.60

 Dynamic and Automatic memory (MB) usage for Grid 02:  48x15x10  tiling: 1x1

     tile          Dynamic        Automatic            USAGE

        0             6.84             0.72             7.56

      SUM             6.84             0.72             7.56

    TOTAL            12.80             1.36            14.15

<<<<<<<<<<<<<<<<<<<<<<<<<<<<<<<<<<<<<<<<<<<<<<<<<<<<<<<<<<<<<<<<<<<<<<<<<<<<<<<<

 ROMS/TOMS - Output NetCDF summary for Grid 01:
             number of time records written in HISTORY file = 00000061
             number of time records written in RESTART file = 00000002
             number of time records written in AVERAGE file = 00000060

 ROMS/TOMS - Output NetCDF summary for Grid 02:
             number of time records written in HISTORY file = 00000061
             number of time records written in RESTART file = 00000002
             number of time records written in AVERAGE file = 00000060

 Analytical header files used:

     ROMS/Functionals/ana_btflux.h
     ROMS/Functionals/ana_smflux.h
     ROMS/Functionals/ana_stflux.h

 ROMS/TOMS: DONE... Thursday - December 20, 2018 -  2:18:23 PM
