
 Model Input Parameters:  ROMS/TOMS version 3.5  
                          Tuesday - September 6, 2011 -  2:55:31 AM
 -----------------------------------------------------------------------------

 River Plume Test

 Operating system : Linux
 CPU/hardware     : x86_64
 Compiler system  : gfortran
 Compiler command : /usr/bin/gfortran
 Compiler flags   : -frepack-arrays -O3 -ffree-form -ffree-line-length-none -ffree-form -ffree-line-length-none -ffree-form -ffree-line-length-none

 SVN Root URL  : https:://myroms.org/svn/src
 SVN Revision  : 

 Local Root    : /gpfs_hpcf/filesets/hpcf/home/hadfield/ROMS/roms-local
 Header Dir    : /home/hadfield/ROMS/roms-test-local/riverplume
 Header file   : riverplume1.h
 Analytical Dir: /home/hadfield/ROMS/roms-test-local/riverplume

 Resolution, Grid 01: 0039x0067x013,  Parallel Threads:  1,  Tiling: 001x001


 Physical Parameters, Grid: 01
 =============================

      21600  ntimes          Number of timesteps for 3-D equations.
    120.000  dt              Timestep size (s) for 3-D equations.
         20  ndtfast         Number of timesteps for 2-D equations between
                               each 3D timestep.
          1  ERstr           Starting ensemble/perturbation run number.
          1  ERend           Ending ensemble/perturbation run number.
          0  nrrec           Number of restart records to read from disk.
          T  LcycleRST       Switch to recycle time-records in restart file.
        360  nRST            Number of timesteps between the writing of data
                               into restart fields.
          1  ninfo           Number of timesteps between print of information
                               to standard output.
          T  ldefout         Switch to create a new output NetCDF file(s).
        360  nHIS            Number of timesteps between the writing fields
                               into history file.
          1  ntsAVG          Starting timestep for the accumulation of output
                               time-averaged data.
        360  nAVG            Number of timesteps between the writing of
                               time-averaged data into averages file.
 0.0000E+00  nl_tnu2(01)     NLM Horizontal, harmonic mixing coefficient
                               (m2/s) for tracer 01: temp
 0.0000E+00  nl_tnu2(02)     NLM Horizontal, harmonic mixing coefficient
                               (m2/s) for tracer 02: salt
 0.0000E+00  nl_visc2        NLM Horizontal, harmonic mixing coefficient
                               (m2/s) for momentum.
 5.0000E-06  Akt_bak(01)     Background vertical mixing coefficient (m2/s)
                               for tracer 01: temp
 5.0000E-06  Akt_bak(02)     Background vertical mixing coefficient (m2/s)
                               for tracer 02: salt
 5.0000E-06  Akv_bak         Background vertical mixing coefficient (m2/s)
                               for momentum.
 3.0000E-04  rdrg            Linear bottom drag coefficient (m/s).
 3.0000E-03  rdrg2           Quadratic bottom drag coefficient.
 2.0000E-02  Zob             Bottom roughness (m).
          2  Vtransform      S-coordinate transformation equation.
          4  Vstretching     S-coordinate stretching function.
 3.0000E+00  theta_s         S-coordinate surface control parameter.
 1.0000E+00  theta_b         S-coordinate bottom  control parameter.
     30.000  Tcline          S-coordinate surface/bottom layer width (m) used
                               in vertical coordinate stretching.
   1025.000  rho0            Mean density (kg/m3) for Boussinesq approximation.
      0.000  dstart          Time-stamp assigned to model initialization (days).
       0.00  time_ref        Reference time for units attribute (yyyymmdd.dd)
 0.0000E+00  Tnudg(01)       Nudging/relaxation time scale (days)
                               for tracer 01: temp
 0.0000E+00  Tnudg(02)       Nudging/relaxation time scale (days)
                               for tracer 02: salt
 0.0000E+00  Znudg           Nudging/relaxation time scale (days)
                               for free-surface.
 0.0000E+00  M2nudg          Nudging/relaxation time scale (days)
                               for 2D momentum.
 0.0000E+00  M3nudg          Nudging/relaxation time scale (days)
                               for 3D momentum.
 0.0000E+00  obcfac          Factor between passive and active
                               open boundary conditions.
      4.000  T0              Background potential temperature (C) constant.
     32.000  S0              Background salinity (PSU) constant.
     -1.000  gamma2          Slipperiness variable: free-slip (1.0) or 
                                                    no-slip (-1.0).
          T  LtracerSrc(01)  Processing point sources/Sink on tracer 01: temp
          T  LtracerSrc(02)  Processing point sources/Sink on tracer 02: salt
          T  Hout(idFsur)    Write out free-surface.
          T  Hout(idUbar)    Write out 2D U-momentum component.
          T  Hout(idVbar)    Write out 2D V-momentum component.
          T  Hout(idUvel)    Write out 3D U-momentum component.
          T  Hout(idVvel)    Write out 3D V-momentum component.
          T  Hout(idWvel)    Write out W-momentum component.
          T  Hout(idOvel)    Write out omega vertical velocity.
          T  Hout(idTvar)    Write out tracer 01: temp
          T  Hout(idTvar)    Write out tracer 02: salt
          T  Hout(idDano)    Write out density anomaly.
          T  Hout(idVvis)    Write out vertical viscosity: AKv.
          T  Hout(idTdif)    Write out vertical diffusion: AKt(itemp).
          T  Hout(idSdif)    Write out vertical diffusion: AKt(isalt).

          T  Aout(idFsur)    Write out averaged free-surface.
          T  Aout(idUbar)    Write out averaged 2D U-momentum component.
          T  Aout(idVbar)    Write out averaged 2D V-momentum component.
          T  Aout(idUvel)    Write out averaged 3D U-momentum component.
          T  Aout(idVvel)    Write out averaged 3D V-momentum component.
          T  Aout(idWvel)    Write out averaged W-momentum component.
          T  Aout(idOvel)    Write out averaged omega vertical velocity.
          T  Aout(idTvar)    Write out averaged tracer 01: temp
          T  Aout(idTvar)    Write out averaged tracer 02: salt

 Output/Input Files:

             Output Restart File:  ocean_rst.nc
             Output History File:  ocean_his.nc
            Output Averages File:  ocean_avg.nc

 Tile partition information for Grid 01:  0039x0067x0013  tiling: 001x001

     tile     Istr     Iend     Jstr     Jend     Npts

        0        1       39        1       67    33969

 Tile minimum and maximum fractional grid coordinates:
   (interior points only)

     tile     Xmin     Xmax     Ymin     Ymax     grid

        0     0.50    39.50    -2.50    69.50  RHO-points

        0     0.00    39.00    -2.50    69.50    U-points

        0     0.50    39.50    -3.00    69.00    V-points

 Activated C-preprocessing Options:

 RIVERPLUME1         River Plume Test
 ANA_BSFLUX          Analytical kinematic bottom salinity flux.
 ANA_BTFLUX          Analytical kinematic bottom temperature flux.
 ANA_GRID            Analytical grid set-up.
 ANA_INITIAL         Analytical initial conditions.
 ANA_PSOURCE         Analytical point sources and sinks.
 ANA_SMFLUX          Analytical kinematic surface momentum flux.
 ANA_SSFLUX          Analytical kinematic surface salinity flux.
 ANA_STFLUX          Analytical kinematic surface temperature flux.
 ASSUMED_SHAPE       Using assumed-shape arrays.
 AVERAGES            Writing out time-averaged nonlinear model fields.
 DJ_GRADPS           Parabolic Splines density Jacobian (Shchepetkin, 2002).
 DOUBLE_PRECISION    Double precision arithmetic.
 EASTERN_WALL        Wall boundary at Eastern edge.
 MASKING             Land/Sea masking.
 MIX_S_TS            Mixing of tracers along constant S-surfaces.
 MIX_GEO_UV          Mixing of momentum along geopotential surfaces.
 NONLINEAR           Nonlinear Model.
 NONLIN_EOS          Nonlinear Equation of State for seawater.
 NS_PERIODIC         North-South periodic boundaries.
 POWER_LAW           Power-law shape time-averaging barotropic filter.
 PROFILE             Time profiling activated .
 !RST_SINGLE         Double precision fields in restart NetCDF file.
 SALINITY            Using salinity.
 SOLVE3D             Solving 3D Primitive Equations.
 SPLINES             Conservative parabolic spline reconstruction.
 THREE_GHOST         Using three Ghost Points in halo regions.
 TS_MPDATA           Recursive flux corrected MPDATA 3D advection of tracers.
 TS_DIF2             Harmonic mixing of tracers.
 TS_PSOURCE          Tracers point sources and sinks.
 UV_ADV              Advection of momentum.
 UV_COR              Coriolis term.
 UV_U3HADVECTION     Third-order upstream horizontal advection of 3D momentum.
 UV_C4VADVECTION     Fourth-order centered vertical advection of momentum.
 UV_QDRAG            Quadratic bottom stress.
 UV_PSOURCE          Mass point sources and sinks.
 UV_VIS2             Harmonic mixing of momentum.
 VAR_RHO_2D          Variable density barotropic mode.
 WESTERN_WALL        Wall boundary at Western edge.

 Process Information:

 Thread #  0 (pid=   30635) is active.

 INITIAL: Configuring and initializing forward nonlinear model ...


 Vertical S-coordinate System: 

 level   S-coord     Cs-curve   Z   at hmin       at hc    half way     at hmax

    13   0.0000000   0.0000000        0.000       0.000       0.000       0.000
    12  -0.0769231  -0.0046593       -0.793      -1.224      -1.994      -2.533
    11  -0.1538462  -0.0188015       -1.632      -2.590      -4.580      -6.288
    10  -0.2307692  -0.0429133       -2.522      -4.105      -7.788     -11.330
     9  -0.3076923  -0.0777804       -3.466      -5.782     -11.667     -17.759
     8  -0.3846154  -0.1244405       -4.468      -7.636     -16.282     -25.708
     7  -0.4615385  -0.1840996       -5.536      -9.685     -21.708     -35.335
     6  -0.5384615  -0.2579933       -6.675     -11.947     -28.023     -46.797
     5  -0.6153846  -0.3471719       -7.890     -14.438     -35.291     -60.231
     4  -0.6923077  -0.4521902       -9.184     -17.167     -43.548     -75.708
     3  -0.7692308  -0.5726962      -10.556     -20.129     -52.771     -93.182
     2  -0.8461538  -0.7069434      -11.996     -23.296     -62.851    -112.429
     1  -0.9230769  -0.8513110      -13.487     -26.616     -73.564    -132.981
     0  -1.0000000  -1.0000000      -15.000     -30.000     -84.545    -154.091

 Time Splitting Weights: ndtfast =  20    nfast =  29

    Primary            Secondary            Accumulated to Current Step

  1-0.0009651193358779 0.0500000000000000-0.0009651193358779 0.0500000000000000
  2-0.0013488780126037 0.0500482559667939-0.0023139973484816 0.1000482559667939
  3-0.0011514592651645 0.0501156998674241-0.0034654566136460 0.1501639558342179
  4-0.0003735756740661 0.0501732728306823-0.0038390322877122 0.2003372286649002
  5 0.0009829200513762 0.0501919516143856-0.0028561122363360 0.2505291802792858
  6 0.0029141799764308 0.0501428056118168 0.0000580677400948 0.3006719858911026
  7 0.0054132615310267 0.0499970966129952 0.0054713292711215 0.3506690825040978
  8 0.0084687837865132 0.0497264335364439 0.0139401130576347 0.4003955160405417
  9 0.0120633394191050 0.0493029943471183 0.0260034524767397 0.4496985103876600
 10 0.0161716623600090 0.0486998273761630 0.0421751148367486 0.4983983377638230
 11 0.0207585511322367 0.0478912442581626 0.0629336659689853 0.5462895820219856
 12 0.0257765478740990 0.0468533167015507 0.0887102138430843 0.5931428987235363
 13 0.0311633730493853 0.0455644893078458 0.1198735868924696 0.6387073880313821
 14 0.0368391158442262 0.0440063206553765 0.1567127027366958 0.6827137086867585
 15 0.0427031802506397 0.0421643648631652 0.1994158829873354 0.7248780735499237
 16 0.0486309868367616 0.0400292058506332 0.2480468698240970 0.7649072794005569
 17 0.0544704302037591 0.0375976565087951 0.3025173000278562 0.8025049359093520
 18 0.0600380921294285 0.0348741349986072 0.3625553921572847 0.8373790709079592
 19 0.0651152103984763 0.0318722303921358 0.4276706025557610 0.8692513013000949
 20 0.0694434033194839 0.0286164698722119 0.4971140058752449 0.8978677711723068
 21 0.0727201499285569 0.0251442997062377 0.5698341558038018 0.9230120708785445
 22 0.0745940258796570 0.0215082922098099 0.6444281816834588 0.9445203630883544
 23 0.0746596950216180 0.0177785909158270 0.7190878767050768 0.9622989540041814
 24 0.0724526566618460 0.0140456061647461 0.7915405333669228 0.9763445601689276
 25 0.0674437485167025 0.0104229733316538 0.8589842818836253 0.9867675335005814
 26 0.0590334053485720 0.0070507859058187 0.9180176872321973 0.9938183194064002
 27 0.0465456732896125 0.0040991156383901 0.9645633605218099 0.9979174350447904
 28 0.0292219798521905 0.0017718319739095 0.9937853403740005 0.9996892670186999
 29 0.0062146596259994 0.0003107329813000 0.9999999999999999 0.9999999999999999

 ndtfast, nfast =   20  29   nfast/ndtfast =  1.45000

 Centers of gravity and integrals (values must be 1, 1, approx 1/2, 1, 1):

    1.000000000000 1.060707743385 0.530353871693 1.000000000000 1.000000000000

 Power filter parameters, Fgamma, gamma =  0.28400   0.14200

 Minimum X-grid spacing, DXmin =  1.50000000E+00 km
 Maximum X-grid spacing, DXmax =  1.50000000E+00 km
 Minimum Y-grid spacing, DYmin =  3.00000000E+00 km
 Maximum Y-grid spacing, DYmax =  3.00000000E+00 km
 Minimum Z-grid spacing, DZmin =  7.92527058E-01 m
 Maximum Z-grid spacing, DZmax =  2.11095014E+01 m

 Minimum barotropic Courant Number =  5.42494240E-02
 Maximum barotropic Courant Number =  1.73875347E-01
 Maximum Coriolis   Courant Number =  1.20000000E-02


 Maximum grid stiffness ratios:  rx0 =   1.200000E-01 (Beckmann and Haidvogel)
                                 rx1 =   2.189278E+00 (Haney)


 Initial basin volumes: TotVolume =  8.4604500000E+11 m3
                        MinVolume =  3.5663717588E+06 m3
                        MaxVolume =  9.2291409737E+07 m3
                          Max/Min =  2.5878235916E+01


 NL ROMS/TOMS: started time-stepping: (Grid: 01 TimeSteps: 00000001 - 00021600)


     STEP   Day HH:MM:SS  KINETIC_ENRG  POTEN_ENRG   TOTAL_ENRG   NET_VOLUME
            C => (i,j,k)       Cu           Cv           Cw        Max Speed

        0     0 00:00:00  0.000000E+00 4.906001E+02 4.906001E+02 8.683200E+11
              (00,00,00)  0.000000E+00 0.000000E+00 0.000000E+00 0.000000E+00
      DEF_HIS   - creating history file: ocean_his.nc
      WRT_HIS   - wrote history  fields (Index=1,1) into time record = 0000001
      DEF_AVG   - creating average file: ocean_avg.nc
        1     0 00:02:00  1.724681E-09 4.906001E+02 4.906001E+02 8.683200E+11
              (01,50,13)  5.937147E-04 0.000000E+00 0.000000E+00 8.499191E-03
        2     0 00:04:00  3.993031E-09 4.906001E+02 4.906001E+02 8.683201E+11
              (01,50,13)  7.770392E-04 0.000000E+00 6.728629E-03 9.898122E-03
        3     0 00:06:00  6.569762E-09 4.906001E+02 4.906001E+02 8.683201E+11
              (02,50,13)  6.413409E-04 0.000000E+00 6.971540E-03 1.040389E-02
        4     0 00:08:00  8.930755E-09 4.906001E+02 4.906001E+02 8.683202E+11
              (03,50,13)  6.186027E-04 0.000000E+00 6.337503E-03 1.022672E-02
        5     0 00:10:00  1.143624E-08 4.906002E+02 4.906002E+02 8.683202E+11
              (04,50,13)  6.052776E-04 0.000000E+00 5.773958E-03 1.047262E-02
        6     0 00:12:00  1.440124E-08 4.906002E+02 4.906002E+02 8.683203E+11
              (05,50,13)  6.083440E-04 0.000000E+00 5.224420E-03 1.090853E-02
        7     0 00:14:00  1.854951E-08 4.906002E+02 4.906002E+02 8.683203E+11
              (05,50,13)  7.598762E-04 0.000000E+00 3.753889E-03 1.117731E-02
        8     0 00:16:00  2.436052E-08 4.906003E+02 4.906003E+02 8.683203E+11
              (04,50,13)  6.903519E-04 0.000000E+00 2.148106E-03 1.153883E-02
        9     0 00:18:00  3.098797E-08 4.906003E+02 4.906003E+02 8.683204E+11
              (05,50,13)  9.126893E-04 0.000000E+00 4.180799E-03 1.211255E-02
       10     0 00:20:00  3.787384E-08 4.906003E+02 4.906003E+02 8.683204E+11
              (06,50,13)  8.296824E-04 5.532113E-06 3.654014E-03 1.305908E-02
       11     0 00:22:00  4.493078E-08 4.906004E+02 4.906004E+02 8.683205E+11
              (04,50,13)  1.050266E-03 0.000000E+00 3.018433E-03 1.421462E-02
       12     0 00:24:00  5.145142E-08 4.906004E+02 4.906004E+02 8.683205E+11
              (02,50,11)  1.105544E-03 0.000000E+00 2.801258E-03 1.504793E-02
       13     0 00:26:00  5.632913E-08 4.906005E+02 4.906005E+02 8.683206E+11
              (02,50,11)  1.221293E-03 0.000000E+00 3.414572E-03 1.675088E-02
       14     0 00:28:00  5.869538E-08 4.906005E+02 4.906005E+02 8.683206E+11
              (01,50,13)  1.334044E-03 0.000000E+00 4.063059E-03 1.767860E-02
       15     0 00:30:00  5.831645E-08 4.906006E+02 4.906006E+02 8.683207E+11
              (01,50,13)  1.363842E-03 0.000000E+00 4.162239E-03 1.774013E-02
       16     0 00:32:00  5.606839E-08 4.906006E+02 4.906006E+02 8.683207E+11
              (02,50,10)  1.112371E-03 0.000000E+00 4.071371E-03 1.795512E-02
       17     0 00:34:00  5.284164E-08 4.906007E+02 4.906007E+02 8.683208E+11
              (02,50,09)  9.933460E-04 0.000000E+00 4.218204E-03 1.854995E-02
       18     0 00:36:00  4.907221E-08 4.906007E+02 4.906007E+02 8.683208E+11
              (02,50,09)  1.001415E-03 0.000000E+00 4.266172E-03 1.965755E-02
       19     0 00:38:00  4.524143E-08 4.906008E+02 4.906008E+02 8.683209E+11
              (02,50,08)  9.395544E-04 0.000000E+00 4.328252E-03 2.105554E-02
       20     0 00:40:00  4.153455E-08 4.906008E+02 4.906008E+02 8.683209E+11
              (02,50,08)  9.721109E-04 0.000000E+00 4.541099E-03 2.243781E-02
       21     0 00:42:00  3.809555E-08 4.906009E+02 4.906009E+02 8.683209E+11
              (02,50,08)  9.778693E-04 0.000000E+00 4.985708E-03 2.370326E-02
       22     0 00:44:00  3.513638E-08 4.906010E+02 4.906010E+02 8.683210E+11
              (02,50,08)  9.580210E-04 0.000000E+00 5.388064E-03 2.488301E-02
       23     0 00:46:00  3.271351E-08 4.906010E+02 4.906010E+02 8.683210E+11
              (02,50,08)  9.324996E-04 0.000000E+00 5.689094E-03 2.607457E-02
       24     0 00:48:00  3.106626E-08 4.906011E+02 4.906011E+02 8.683211E+11
              (02,50,08)  9.154090E-04 0.000000E+00 6.035167E-03 2.742795E-02
       25     0 00:50:00  3.048315E-08 4.906012E+02 4.906012E+02 8.683211E+11
              (01,50,09)  1.236203E-03 0.000000E+00 6.567885E-03 2.897124E-02
       26     0 00:52:00  3.087222E-08 4.906012E+02 4.906012E+02 8.683212E+11
              (01,50,09)  1.271386E-03 0.000000E+00 7.340316E-03 3.056684E-02
       27     0 00:54:00  3.223242E-08 4.906012E+02 4.906012E+02 8.683212E+11
              (01,50,09)  1.304985E-03 0.000000E+00 8.171519E-03 3.218561E-02
       28     0 00:56:00  3.469491E-08 4.906012E+02 4.906012E+02 8.683213E+11
              (01,50,09)  1.349075E-03 0.000000E+00 9.098374E-03 3.403200E-02
       29     0 00:58:00  3.828684E-08 4.906012E+02 4.906012E+02 8.683213E+11
              (01,50,09)  1.413187E-03 0.000000E+00 9.854562E-03 3.627041E-02
       30     0 01:00:00  4.292180E-08 4.906012E+02 4.906012E+02 8.683214E+11
              (01,50,09)  1.489893E-03 0.000000E+00 1.023115E-02 3.877676E-02
       31     0 01:02:00  4.827288E-08 4.906011E+02 4.906011E+02 8.683214E+11
              (01,50,08)  1.250732E-03 0.000000E+00 1.077696E-02 4.124935E-02
       32     0 01:04:00  5.411003E-08 4.906011E+02 4.906011E+02 8.683215E+11
              (01,50,08)  1.288080E-03 0.000000E+00 1.120401E-02 4.351298E-02
       33     0 01:06:00  6.064466E-08 4.906010E+02 4.906010E+02 8.683215E+11
              (01,50,08)  1.317242E-03 0.000000E+00 1.196988E-02 4.569585E-02
       34     0 01:08:00  6.816122E-08 4.906010E+02 4.906010E+02 8.683216E+11
              (01,50,08)  1.355422E-03 0.000000E+00 1.293201E-02 4.809488E-02
       35     0 01:10:00  7.674514E-08 4.906009E+02 4.906009E+02 8.683216E+11
              (01,50,08)  1.410399E-03 0.000000E+00 1.376737E-02 5.084551E-02
       36     0 01:12:00  8.623892E-08 4.906008E+02 4.906008E+02 8.683217E+11
              (02,50,08)  1.440371E-03 0.000000E+00 1.448642E-02 5.378551E-02
       37     0 01:14:00  9.629749E-08 4.906008E+02 4.906008E+02 8.683217E+11
              (02,50,08)  1.523294E-03 0.000000E+00 1.543045E-02 5.668617E-02
       38     0 01:16:00  1.066976E-07 4.906007E+02 4.906007E+02 8.683218E+11
              (02,50,08)  1.592667E-03 0.000000E+00 1.652800E-02 5.951497E-02
       39     0 01:18:00  1.173067E-07 4.906007E+02 4.906007E+02 8.683218E+11
              (02,50,08)  1.655265E-03 0.000000E+00 1.769535E-02 6.239592E-02
       40     0 01:20:00  1.278928E-07 4.906006E+02 4.906006E+02 8.683219E+11
              (02,50,08)  1.718317E-03 0.000000E+00 1.879128E-02 6.541386E-02
       41     0 01:22:00  1.382771E-07 4.906006E+02 4.906006E+02 8.683219E+11
              (02,50,08)  1.777792E-03 0.000000E+00 1.979197E-02 6.854043E-02
       42     0 01:24:00  1.484064E-07 4.906006E+02 4.906006E+02 8.683220E+11
              (02,50,08)  1.822852E-03 0.000000E+00 2.074219E-02 7.160849E-02
       43     0 01:26:00  1.583093E-07 4.906006E+02 4.906006E+02 8.683220E+11
              (02,50,08)  1.849600E-03 0.000000E+00 2.166440E-02 7.457179E-02
       44     0 01:28:00  1.681575E-07 4.906006E+02 4.906006E+02 8.683221E+11
              (02,50,08)  1.868177E-03 0.000000E+00 2.258043E-02 7.751827E-02
       45     0 01:30:00  1.781715E-07 4.906007E+02 4.906007E+02 8.683222E+11
              (02,50,08)  1.895524E-03 0.000000E+00 2.352843E-02 8.061549E-02
       46     0 01:32:00  1.885355E-07 4.906007E+02 4.906007E+02 8.683222E+11
              (02,50,08)  1.940096E-03 0.000000E+00 2.451134E-02 8.396424E-02
       47     0 01:34:00  1.993363E-07 4.906008E+02 4.906008E+02 8.683223E+11
              (02,50,08)  1.993329E-03 0.000000E+00 2.548384E-02 8.748728E-02
       48     0 01:36:00  2.104832E-07 4.906009E+02 4.906009E+02 8.683223E+11
              (02,50,08)  2.037857E-03 0.000000E+00 2.642376E-02 9.099346E-02
       49     0 01:38:00  2.219130E-07 4.906010E+02 4.906010E+02 8.683224E+11
              (02,50,08)  2.064916E-03 0.000000E+00 2.737840E-02 9.437790E-02
       50     0 01:40:00  2.337964E-07 4.906011E+02 4.906011E+02 8.683224E+11
              (02,50,08)  2.082126E-03 0.000000E+00 2.839325E-02 9.773235E-02
       51     0 01:42:00  2.463976E-07 4.906012E+02 4.906012E+02 8.683225E+11
              (01,50,08)  2.173825E-03 0.000000E+00 2.950015E-02 1.012276E-01
       52     0 01:44:00  2.599093E-07 4.906014E+02 4.906014E+02 8.683225E+11
              (01,50,08)  2.222961E-03 0.000000E+00 3.090503E-02 1.049208E-01
       53     0 01:46:00  2.744040E-07 4.906015E+02 4.906015E+02 8.683226E+11
              (01,50,08)  2.274529E-03 0.000000E+00 3.220570E-02 1.087291E-01
       54     0 01:48:00  2.899500E-07 4.906016E+02 4.906016E+02 8.683226E+11
              (01,50,08)  2.324155E-03 0.000000E+00 3.349099E-02 1.125719E-01
       55     0 01:50:00  3.067427E-07 4.906017E+02 4.906017E+02 8.683227E+11
              (01,50,08)  2.373403E-03 0.000000E+00 3.484162E-02 1.164765E-01
       56     0 01:52:00  3.249614E-07 4.906018E+02 4.906018E+02 8.683228E+11
              (01,50,08)  2.426845E-03 0.000000E+00 3.622682E-02 1.205275E-01
       57     0 01:54:00  3.446231E-07 4.906019E+02 4.906019E+02 8.683228E+11
              (01,50,08)  2.486024E-03 0.000000E+00 3.756034E-02 1.247540E-01
       58     0 01:56:00  3.656453E-07 4.906020E+02 4.906020E+02 8.683229E+11
              (01,50,08)  2.547515E-03 0.000000E+00 3.881337E-02 1.290895E-01
       59     0 01:58:00  3.879434E-07 4.906020E+02 4.906020E+02 8.683229E+11
              (01,50,08)  2.606263E-03 0.000000E+00 4.004993E-02 1.334357E-01
       60     0 02:00:00  4.114948E-07 4.906021E+02 4.906021E+02 8.683230E+11
              (01,50,08)  2.660485E-03 0.000000E+00 4.136358E-02 1.377590E-01
       61     0 02:02:00  4.363144E-07 4.906020E+02 4.906020E+02 8.683230E+11
              (01,50,08)  2.713510E-03 0.000000E+00 4.278590E-02 1.421259E-01
       62     0 02:04:00  4.623853E-07 4.906020E+02 4.906020E+02 8.683231E+11
              (01,50,08)  2.770636E-03 0.000000E+00 4.425265E-02 1.466403E-01
       63     0 02:06:00  4.896914E-07 4.906020E+02 4.906020E+02 8.683232E+11
              (01,50,08)  2.833864E-03 0.000000E+00 4.566379E-02 1.513417E-01
       64     0 02:08:00  5.182421E-07 4.906019E+02 4.906019E+02 8.683232E+11
              (01,50,08)  2.899930E-03 0.000000E+00 4.698194E-02 1.561668E-01
       65     0 02:10:00  5.480200E-07 4.906018E+02 4.906018E+02 8.683233E+11
              (01,50,08)  2.963745E-03 0.000000E+00 4.826819E-02 1.610166E-01
       66     0 02:12:00  5.790047E-07 4.906017E+02 4.906017E+02 8.683233E+11
              (01,50,08)  3.023465E-03 0.000000E+00 4.961672E-02 1.658535E-01
       67     0 02:14:00  6.112303E-07 4.906016E+02 4.906016E+02 8.683234E+11
              (01,50,08)  3.081628E-03 0.000000E+00 5.105985E-02 1.707235E-01
       68     0 02:16:00  6.447516E-07 4.906015E+02 4.906015E+02 8.683234E+11
              (01,50,08)  3.141317E-03 0.000000E+00 5.254801E-02 1.756843E-01
       69     0 02:18:00  6.795306E-07 4.906014E+02 4.906014E+02 8.683235E+11
              (01,50,08)  3.202273E-03 0.000000E+00 5.402225E-02 1.807324E-01
       70     0 02:20:00  7.153602E-07 4.906013E+02 4.906013E+02 8.683236E+11
              (01,50,08)  3.261651E-03 0.000000E+00 5.548677E-02 1.858157E-01
       71     0 02:22:00  7.519942E-07 4.906012E+02 4.906012E+02 8.683236E+11
              (01,50,08)  3.317982E-03 0.000000E+00 5.699360E-02 1.909071E-01
       72     0 02:24:00  7.893470E-07 4.906012E+02 4.906012E+02 8.683237E+11
              (01,50,08)  3.373019E-03 0.000000E+00 5.856809E-02 1.960405E-01
       73     0 02:26:00  8.274814E-07 4.906011E+02 4.906011E+02 8.683237E+11
              (01,50,08)  3.429499E-03 0.000000E+00 6.017523E-02 2.012691E-01
       74     0 02:28:00  8.664793E-07 4.906011E+02 4.906011E+02 8.683238E+11
              (01,50,08)  3.487960E-03 0.000000E+00 6.176252E-02 2.066037E-01
       75     0 02:30:00  9.063838E-07 4.906011E+02 4.906011E+02 8.683239E+11
              (01,50,08)  3.546120E-03 0.000000E+00 6.331903E-02 2.119976E-01
       76     0 02:32:00  9.472597E-07 4.906011E+02 4.906011E+02 8.683239E+11
              (01,50,08)  3.601055E-03 0.000000E+00 6.488623E-02 2.173911E-01
       77     0 02:34:00  9.892911E-07 4.906012E+02 4.906012E+02 8.683240E+11
              (01,50,08)  3.652004E-03 0.000000E+00 6.651696E-02 2.227705E-01
       78     0 02:36:00  1.032770E-06 4.906013E+02 4.906013E+02 8.683241E+11
              (01,50,08)  3.701389E-03 0.000000E+00 6.822284E-02 2.281887E-01
       79     0 02:38:00  1.077972E-06 4.906014E+02 4.906014E+02 8.683241E+11
              (01,50,08)  3.752952E-03 0.000000E+00 6.995608E-02 2.337249E-01
       80     0 02:40:00  1.125042E-06 4.906015E+02 4.906015E+02 8.683242E+11
              (01,50,08)  3.808494E-03 0.000000E+00 7.164507E-02 2.394182E-01
       81     0 02:42:00  1.173925E-06 4.906016E+02 4.906016E+02 8.683242E+11
              (01,50,08)  3.866473E-03 0.000000E+00 7.325534E-02 2.452395E-01
       82     0 02:44:00  1.224423E-06 4.906017E+02 4.906017E+02 8.683243E+11
              (01,50,08)  3.923917E-03 0.000000E+00 7.481502E-02 2.511287E-01
       83     0 02:46:00  1.276356E-06 4.906019E+02 4.906019E+02 8.683244E+11
              (01,50,08)  3.979407E-03 0.000000E+00 7.637801E-02 2.570542E-01
       84     0 02:48:00  1.329633E-06 4.906020E+02 4.906020E+02 8.683244E+11
              (01,50,08)  4.033765E-03 0.000000E+00 7.796833E-02 2.630273E-01
       85     0 02:50:00  1.384181E-06 4.906021E+02 4.906021E+02 8.683245E+11
              (01,50,08)  4.088120E-03 0.000000E+00 7.956803E-02 2.690677E-01
       86     0 02:52:00  1.439877E-06 4.906023E+02 4.906023E+02 8.683246E+11
              (01,50,08)  4.142131E-03 0.000000E+00 8.115396E-02 2.751692E-01
       87     0 02:54:00  1.496602E-06 4.906024E+02 4.906024E+02 8.683246E+11
              (01,50,08)  4.194534E-03 0.000000E+00 8.273063E-02 2.813093E-01
       88     0 02:56:00  1.554362E-06 4.906025E+02 4.906025E+02 8.683247E+11
              (01,50,08)  4.245033E-03 0.000000E+00 8.431936E-02 2.874848E-01
       89     0 02:58:00  1.613293E-06 4.906026E+02 4.906026E+02 8.683248E+11
              (01,50,08)  4.294998E-03 0.000000E+00 8.592290E-02 2.937249E-01
       90     0 03:00:00  1.673481E-06 4.906027E+02 4.906027E+02 8.683248E+11
              (01,50,08)  4.346037E-03 0.000000E+00 8.751303E-02 3.000616E-01
       91     0 03:02:00  1.734862E-06 4.906027E+02 4.906027E+02 8.683249E+11
              (01,50,08)  4.398078E-03 0.000000E+00 8.905762E-02 3.064892E-01
       92     0 03:04:00  1.797361E-06 4.906028E+02 4.906028E+02 8.683249E+11
              (01,50,08)  4.448961E-03 0.000000E+00 9.055625E-02 3.129583E-01
       93     0 03:06:00  1.860974E-06 4.906028E+02 4.906028E+02 8.683250E+11
              (01,50,08)  4.496091E-03 0.000000E+00 9.204712E-02 3.194107E-01
       94     0 03:08:00  1.925753E-06 4.906027E+02 4.906028E+02 8.683251E+11
              (01,50,08)  4.538848E-03 0.000000E+00 9.357590E-02 3.258325E-01
       95     0 03:10:00  1.991677E-06 4.906027E+02 4.906027E+02 8.683251E+11
              (01,50,08)  4.579108E-03 0.000000E+00 9.515066E-02 3.322631E-01
       96     0 03:12:00  2.058680E-06 4.906026E+02 4.906026E+02 8.683252E+11
              (01,50,08)  4.619364E-03 0.000000E+00 9.673305E-02 3.387576E-01
       97     0 03:14:00  2.126777E-06 4.906026E+02 4.906026E+02 8.683253E+11
              (01,50,08)  4.660557E-03 0.000000E+00 9.827421E-02 3.453394E-01
       98     0 03:16:00  2.196040E-06 4.906025E+02 4.906025E+02 8.683253E+11
              (01,50,08)  4.701735E-03 0.000000E+00 9.975472E-02 3.519886E-01
       99     0 03:18:00  2.266509E-06 4.906024E+02 4.906024E+02 8.683254E+11
              (01,50,08)  4.741437E-03 0.000000E+00 1.011905E-01 3.586739E-01
      100     0 03:20:00  2.338132E-06 4.906023E+02 4.906023E+02 8.683255E+11
              (01,50,08)  4.779118E-03 0.000000E+00 1.026063E-01 3.653783E-01
      101     0 03:22:00  2.410926E-06 4.906022E+02 4.906022E+02 8.683256E+11
              (01,50,08)  4.815345E-03 0.000000E+00 1.040097E-01 3.721063E-01
      102     0 03:24:00  2.485009E-06 4.906021E+02 4.906021E+02 8.683256E+11
              (01,50,08)  4.850527E-03 0.000000E+00 1.053875E-01 3.788598E-01
      103     0 03:26:00  2.560473E-06 4.906020E+02 4.906020E+02 8.683257E+11
              (01,50,08)  4.884126E-03 0.000000E+00 1.067300E-01 3.856288E-01
      104     0 03:28:00  2.637286E-06 4.906019E+02 4.906019E+02 8.683258E+11
              (01,50,08)  4.915704E-03 0.000000E+00 1.080451E-01 3.924083E-01
      105     0 03:30:00  2.715360E-06 4.906019E+02 4.906019E+02 8.683258E+11
              (01,50,08)  4.946141E-03 0.000000E+00 1.093388E-01 3.992178E-01
      106     0 03:32:00  2.794616E-06 4.906019E+02 4.906019E+02 8.683259E+11
              (01,50,08)  4.977074E-03 0.000000E+00 1.105921E-01 4.060899E-01
      107     0 03:34:00  2.874942E-06 4.906019E+02 4.906019E+02 8.683260E+11
              (01,50,08)  5.009271E-03 0.000000E+00 1.117728E-01 4.130364E-01
      108     0 03:36:00  2.956137E-06 4.906019E+02 4.906019E+02 8.683260E+11
              (01,50,08)  5.041726E-03 0.000000E+00 1.128656E-01 4.200261E-01
      109     0 03:38:00  3.037952E-06 4.906020E+02 4.906020E+02 8.683261E+11
              (01,50,08)  5.072318E-03 0.000000E+00 1.138874E-01 4.269998E-01
      110     0 03:40:00  3.120215E-06 4.906020E+02 4.906020E+02 8.683262E+11
              (01,50,08)  5.099309E-03 0.000000E+00 1.148763E-01 4.339072E-01
      111     0 03:42:00  3.202905E-06 4.906021E+02 4.906021E+02 8.683263E+11
              (01,50,08)  5.122551E-03 0.000000E+00 1.158627E-01 4.407355E-01
      112     0 03:44:00  3.286126E-06 4.906022E+02 4.906022E+02 8.683263E+11
              (01,50,08)  5.143265E-03 0.000000E+00 1.168473E-01 4.475048E-01
      113     0 03:46:00  3.370034E-06 4.906023E+02 4.906023E+02 8.683264E+11
              (01,50,08)  5.162783E-03 0.000000E+00 1.178058E-01 4.542428E-01
      114     0 03:48:00  3.454788E-06 4.906025E+02 4.906025E+02 8.683265E+11
              (01,50,08)  5.181661E-03 0.000000E+00 1.187125E-01 4.609618E-01
      115     0 03:50:00  3.540538E-06 4.906026E+02 4.906026E+02 8.683265E+11
              (01,50,08)  5.199787E-03 0.000000E+00 1.195564E-01 4.676563E-01
      116     0 03:52:00  3.627399E-06 4.906027E+02 4.906027E+02 8.683266E+11
              (01,50,08)  5.216937E-03 0.000000E+00 1.203391E-01 4.743129E-01
      117     0 03:54:00  3.715381E-06 4.906029E+02 4.906029E+02 8.683267E+11
              (01,50,08)  5.232990E-03 0.000000E+00 1.210644E-01 4.809156E-01
      118     0 03:56:00  3.804357E-06 4.906030E+02 4.906030E+02 8.683268E+11
              (01,50,08)  5.247676E-03 0.000000E+00 1.217344E-01 4.874424E-01
      119     0 03:58:00  3.894123E-06 4.906031E+02 4.906031E+02 8.683268E+11
              (01,50,08)  5.260316E-03 0.000000E+00 1.223541E-01 4.938631E-01
      120     0 04:00:00  3.984452E-06 4.906032E+02 4.906032E+02 8.683269E+11
              (01,50,08)  5.270121E-03 0.000000E+00 1.229365E-01 5.001499E-01
      121     0 04:02:00  4.075106E-06 4.906033E+02 4.906033E+02 8.683270E+11
              (01,50,08)  5.276991E-03 0.000000E+00 1.234967E-01 5.062960E-01
      122     0 04:04:00  4.165856E-06 4.906034E+02 4.906034E+02 8.683271E+11
              (01,50,08)  5.282018E-03 0.000000E+00 1.240371E-01 5.123251E-01
      123     0 04:06:00  4.256543E-06 4.906035E+02 4.906035E+02 8.683271E+11
              (01,50,08)  5.287064E-03 0.000000E+00 1.245380E-01 5.182791E-01
      124     0 04:08:00  4.347127E-06 4.906035E+02 4.906035E+02 8.683272E+11
              (01,50,08)  5.293649E-03 0.000000E+00 1.249661E-01 5.241898E-01
      125     0 04:10:00  4.437661E-06 4.906036E+02 4.906036E+02 8.683273E+11
              (01,50,08)  5.302014E-03 0.000000E+00 1.252944E-01 5.300539E-01
      126     0 04:12:00  4.528249E-06 4.906036E+02 4.906036E+02 8.683274E+11
              (01,50,08)  5.311086E-03 0.000000E+00 1.255203E-01 5.358327E-01
      127     0 04:14:00  4.619027E-06 4.906035E+02 4.906035E+02 8.683275E+11
              (01,50,08)  5.319338E-03 0.000000E+00 1.256655E-01 5.414733E-01
      128     0 04:16:00  4.710183E-06 4.906035E+02 4.906035E+02 8.683275E+11
              (01,50,08)  5.325803E-03 0.000000E+00 1.257604E-01 5.469352E-01
      129     0 04:18:00  4.801906E-06 4.906034E+02 4.906034E+02 8.683276E+11
              (01,50,08)  5.330465E-03 0.000000E+00 1.258246E-01 5.522017E-01
      130     0 04:20:00  4.894282E-06 4.906033E+02 4.906033E+02 8.683277E+11
              (01,50,08)  5.333874E-03 0.000000E+00 1.258608E-01 5.572749E-01
      131     0 04:22:00  4.987220E-06 4.906032E+02 4.906033E+02 8.683278E+11
              (01,50,08)  5.336578E-03 0.000000E+00 1.258609E-01 5.621616E-01
      132     0 04:24:00  5.080461E-06 4.906032E+02 4.906032E+02 8.683278E+11
              (01,50,08)  5.338891E-03 0.000000E+00 1.258174E-01 5.668644E-01
      133     0 04:26:00  5.173634E-06 4.906031E+02 4.906031E+02 8.683279E+11
              (01,50,08)  5.340930E-03 0.000000E+00 1.257270E-01 5.713772E-01
      134     0 04:28:00  5.266311E-06 4.906030E+02 4.906030E+02 8.683280E+11
              (01,50,08)  5.342548E-03 0.000000E+00 1.255903E-01 5.756811E-01
      135     0 04:30:00  5.358085E-06 4.906029E+02 4.906029E+02 8.683281E+11
              (01,50,08)  5.343066E-03 0.000000E+00 1.254128E-01 5.797418E-01
      136     0 04:32:00  5.448675E-06 4.906028E+02 4.906028E+02 8.683282E+11
              (01,50,08)  5.341294E-03 0.000000E+00 1.252102E-01 5.835156E-01
      137     0 04:34:00  5.538008E-06 4.906028E+02 4.906028E+02 8.683282E+11
              (01,50,08)  5.336160E-03 0.000000E+00 1.250079E-01 5.869694E-01
      138     0 04:36:00  5.626209E-06 4.906028E+02 4.906028E+02 8.683283E+11
              (01,50,08)  5.327648E-03 0.000000E+00 1.248294E-01 5.901029E-01
      139     0 04:38:00  5.713553E-06 4.906028E+02 4.906028E+02 8.683284E+11
              (01,50,08)  5.317160E-03 0.000000E+00 1.246782E-01 5.929540E-01
      140     0 04:40:00  5.800390E-06 4.906028E+02 4.906028E+02 8.683285E+11
              (01,50,08)  5.306839E-03 0.000000E+00 1.245318E-01 5.955812E-01
      141     0 04:42:00  5.887119E-06 4.906028E+02 4.906028E+02 8.683286E+11
              (01,50,08)  5.298372E-03 0.000000E+00 1.243537E-01 5.980327E-01
      142     0 04:44:00  5.974147E-06 4.906029E+02 4.906029E+02 8.683287E+11
              (01,50,08)  5.292264E-03 0.000000E+00 1.241156E-01 6.003250E-01
      143     0 04:46:00  6.061711E-06 4.906030E+02 4.906030E+02 8.683287E+11
              (01,50,08)  5.287950E-03 0.000000E+00 1.238112E-01 6.024426E-01
      144     0 04:48:00  6.149884E-06 4.906031E+02 4.906031E+02 8.683288E+11
              (01,50,08)  5.284475E-03 0.000000E+00 1.234539E-01 6.043567E-01
      145     0 04:50:00  6.238571E-06 4.906032E+02 4.906032E+02 8.683289E+11
              (01,50,08)  5.281194E-03 0.000000E+00 1.230645E-01 6.060410E-01
      146     0 04:52:00  6.327547E-06 4.906034E+02 4.906034E+02 8.683290E+11
              (01,50,08)  5.277672E-03 0.000000E+00 1.226579E-01 6.074764E-01
      147     0 04:54:00  6.416618E-06 4.906035E+02 4.906035E+02 8.683291E+11
              (01,50,08)  5.273628E-03 0.000000E+00 1.222389E-01 6.086550E-01
      148     0 04:56:00  6.505552E-06 4.906036E+02 4.906036E+02 8.683292E+11
              (01,50,08)  5.268909E-03 0.000000E+00 1.218177E-01 6.095796E-01
      149     0 04:58:00  6.594144E-06 4.906038E+02 4.906038E+02 8.683292E+11
              (01,50,08)  5.263996E-03 0.000000E+00 1.213994E-01 6.102644E-01
      150     0 05:00:00  6.682274E-06 4.906039E+02 4.906039E+02 8.683293E+11
              (01,50,08)  5.259668E-03 0.000000E+00 1.209769E-01 6.107315E-01
      151     0 05:02:00  6.769902E-06 4.906040E+02 4.906040E+02 8.683294E+11
              (01,50,08)  5.256397E-03 0.000000E+00 1.205378E-01 6.109988E-01
      152     0 05:04:00  6.857027E-06 4.906041E+02 4.906041E+02 8.683295E+11
              (01,50,08)  5.254169E-03 0.000000E+00 1.200759E-01 6.110690E-01
      153     0 05:06:00  6.943673E-06 4.906042E+02 4.906042E+02 8.683296E+11
              (01,50,08)  5.252510E-03 0.000000E+00 1.195939E-01 6.109286E-01
      154     0 05:08:00  7.029906E-06 4.906043E+02 4.906043E+02 8.683297E+11
              (01,50,08)  5.250624E-03 0.000000E+00 1.191025E-01 6.105580E-01
      155     0 05:10:00  7.115806E-06 4.906044E+02 4.906044E+02 8.683298E+11
              (01,50,08)  5.247815E-03 0.000000E+00 1.186192E-01 6.099419E-01
      156     0 05:12:00  7.201434E-06 4.906044E+02 4.906044E+02 8.683298E+11
              (01,50,08)  5.243815E-03 0.000000E+00 1.181591E-01 6.090731E-01
      157     0 05:14:00  7.286805E-06 4.906044E+02 4.906044E+02 8.683299E+11
              (01,50,08)  5.238576E-03 0.000000E+00 1.177294E-01 6.079510E-01
      158     0 05:16:00  7.371897E-06 4.906044E+02 4.906044E+02 8.683300E+11
              (01,50,08)  5.231889E-03 0.000000E+00 1.173336E-01 6.065769E-01
      159     0 05:18:00  7.456677E-06 4.906044E+02 4.906044E+02 8.683301E+11
              (01,50,08)  5.223398E-03 0.000000E+00 1.169779E-01 6.049531E-01
      160     0 05:20:00  7.541098E-06 4.906044E+02 4.906044E+02 8.683302E+11
              (01,50,08)  5.212957E-03 0.000000E+00 1.166711E-01 6.030901E-01
      161     0 05:22:00  7.625086E-06 4.906043E+02 4.906043E+02 8.683303E+11
              (01,50,08)  5.200943E-03 0.000000E+00 1.164184E-01 6.021815E-01
      162     0 05:24:00  7.708582E-06 4.906042E+02 4.906042E+02 8.683304E+11
              (01,50,08)  5.188268E-03 0.000000E+00 1.162146E-01 6.065518E-01
      163     0 05:26:00  7.791600E-06 4.906042E+02 4.906042E+02 8.683305E+11
              (01,50,08)  5.175998E-03 0.000000E+00 1.160448E-01 6.107288E-01
      164     0 05:28:00  7.874259E-06 4.906041E+02 4.906041E+02 8.683306E+11
              (01,50,08)  5.164841E-03 0.000000E+00 1.158903E-01 6.147329E-01
      165     0 05:30:00  7.956725E-06 4.906040E+02 4.906040E+02 8.683306E+11
              (01,50,08)  5.154868E-03 0.000000E+00 1.157392E-01 6.185675E-01
      166     0 05:32:00  8.039170E-06 4.906040E+02 4.906040E+02 8.683307E+11
              (01,50,08)  5.145653E-03 0.000000E+00 1.155909E-01 6.222176E-01
      167     0 05:34:00  8.121778E-06 4.906039E+02 4.906039E+02 8.683308E+11
              (01,50,08)  5.136589E-03 0.000000E+00 1.154541E-01 6.256565E-01
      168     0 05:36:00  8.204765E-06 4.906039E+02 4.906039E+02 8.683309E+11
              (01,50,08)  5.127165E-03 0.000000E+00 1.153410E-01 6.288571E-01
      169     0 05:38:00  8.288361E-06 4.906038E+02 4.906038E+02 8.683310E+11
              (01,50,08)  5.117127E-03 0.000000E+00 1.152619E-01 6.318049E-01
      170     0 05:40:00  8.372745E-06 4.906038E+02 4.906038E+02 8.683311E+11
              (01,50,09)  9.207589E-03 0.000000E+00 1.111448E-01 6.345057E-01
      171     0 05:42:00  8.458007E-06 4.906038E+02 4.906039E+02 8.683312E+11
              (01,50,09)  9.207964E-03 0.000000E+00 1.111676E-01 6.369858E-01
      172     0 05:44:00  8.544152E-06 4.906039E+02 4.906039E+02 8.683313E+11
              (01,50,09)  9.209516E-03 0.000000E+00 1.112202E-01 6.392810E-01
      173     0 05:46:00  8.631125E-06 4.906039E+02 4.906039E+02 8.683314E+11
              (01,50,09)  9.213316E-03 0.000000E+00 1.112810E-01 6.414211E-01
      174     0 05:48:00  8.718794E-06 4.906040E+02 4.906040E+02 8.683315E+11
              (01,50,09)  9.219941E-03 0.000000E+00 1.113257E-01 6.434143E-01
      175     0 05:50:00  8.806948E-06 4.906041E+02 4.906041E+02 8.683316E+11
              (01,50,09)  9.229023E-03 0.000000E+00 1.113402E-01 6.452399E-01
      176     0 05:52:00  8.895320E-06 4.906042E+02 4.906042E+02 8.683317E+11
              (01,50,09)  9.239308E-03 0.000000E+00 1.113315E-01 6.468540E-01
      177     0 05:54:00  8.983675E-06 4.906043E+02 4.906043E+02 8.683318E+11
              (01,50,09)  9.249254E-03 0.000000E+00 1.113261E-01 6.482049E-01
      178     0 05:56:00  9.071875E-06 4.906044E+02 4.906044E+02 8.683319E+11
              (01,50,09)  9.257792E-03 0.000000E+00 1.113575E-01 6.492545E-01
      179     0 05:58:00  9.159902E-06 4.906046E+02 4.906046E+02 8.683320E+11
              (01,50,09)  9.264800E-03 0.000000E+00 1.114492E-01 6.499936E-01
      180     0 06:00:00  9.247837E-06 4.906047E+02 4.906047E+02 8.683320E+11
              (01,50,09)  9.271061E-03 0.000000E+00 1.116040E-01 6.504457E-01
      181     0 06:02:00  9.335871E-06 4.906048E+02 4.906048E+02 8.683321E+11
              (01,50,09)  9.277830E-03 0.000000E+00 1.118047E-01 6.506540E-01
      182     0 06:04:00  9.424174E-06 4.906049E+02 4.906049E+02 8.683322E+11
              (01,50,09)  9.286260E-03 0.000000E+00 1.120234E-01 6.506595E-01
      183     0 06:06:00  9.512901E-06 4.906050E+02 4.906050E+02 8.683323E+11
              (01,50,09)  9.296876E-03 0.000000E+00 1.122336E-01 6.504824E-01
      184     0 06:08:00  9.602114E-06 4.906051E+02 4.906051E+02 8.683324E+11
              (01,50,09)  9.309281E-03 0.000000E+00 1.124223E-01 6.501112E-01
      185     0 06:10:00  9.691789E-06 4.906052E+02 4.906052E+02 8.683325E+11
              (01,50,09)  9.322303E-03 0.000000E+00 1.125969E-01 6.495069E-01
      186     0 06:12:00  9.781864E-06 4.906053E+02 4.906053E+02 8.683326E+11
              (01,50,09)  9.334461E-03 0.000000E+00 1.127819E-01 6.486238E-01
      187     0 06:14:00  9.872286E-06 4.906053E+02 4.906053E+02 8.683327E+11
              (01,50,09)  9.344540E-03 0.000000E+00 1.130092E-01 6.474367E-01
      188     0 06:16:00  9.963049E-06 4.906054E+02 4.906054E+02 8.683328E+11
              (01,50,09)  9.352265E-03 0.000000E+00 1.133052E-01 6.459566E-01
      189     0 06:18:00  1.005422E-05 4.906054E+02 4.906054E+02 8.683329E+11
              (01,50,09)  9.358706E-03 0.000000E+00 1.136760E-01 6.442312E-01
      190     0 06:20:00  1.014593E-05 4.906054E+02 4.906054E+02 8.683330E+11
              (01,50,09)  9.365827E-03 0.000000E+00 1.140975E-01 6.423299E-01
      191     0 06:22:00  1.023833E-05 4.906054E+02 4.906054E+02 8.683331E+11
              (01,50,09)  9.375365E-03 0.000000E+00 1.145256E-01 6.403188E-01
      192     0 06:24:00  1.033151E-05 4.906054E+02 4.906054E+02 8.683332E+11
              (01,50,09)  9.387958E-03 0.000000E+00 1.149205E-01 6.382376E-01
      193     0 06:26:00  1.042545E-05 4.906053E+02 4.906053E+02 8.683333E+11
              (01,50,09)  9.403003E-03 0.000000E+00 1.152662E-01 6.360886E-01
      194     0 06:28:00  1.052004E-05 4.906053E+02 4.906053E+02 8.683334E+11
              (01,50,09)  9.419060E-03 0.000000E+00 1.155738E-01 6.338448E-01
      195     0 06:30:00  1.061516E-05 4.906052E+02 4.906053E+02 8.683335E+11
              (01,50,09)  9.434592E-03 0.000000E+00 1.158733E-01 6.314719E-01
      196     0 06:32:00  1.071073E-05 4.906052E+02 4.906052E+02 8.683336E+11
              (01,50,09)  9.448733E-03 0.000000E+00 1.161970E-01 6.289524E-01
      197     0 06:34:00  1.080674E-05 4.906051E+02 4.906052E+02 8.683337E+11
              (01,50,09)  9.461642E-03 0.000000E+00 1.165632E-01 6.263020E-01
      198     0 06:36:00  1.090332E-05 4.906051E+02 4.906051E+02 8.683339E+11
              (01,50,09)  9.474279E-03 0.000000E+00 1.169674E-01 6.235630E-01
      199     0 06:38:00  1.100068E-05 4.906051E+02 4.906051E+02 8.683340E+11
              (01,50,09)  9.487870E-03 0.000000E+00 1.173876E-01 6.237161E-01
      200     0 06:40:00  1.109901E-05 4.906050E+02 4.906050E+02 8.683341E+11
              (01,50,09)  9.503356E-03 0.000000E+00 1.177954E-01 6.271941E-01
      201     0 06:42:00  1.119841E-05 4.906050E+02 4.906050E+02 8.683342E+11
              (01,50,09)  9.520820E-03 0.000000E+00 1.181685E-01 6.304817E-01
      202     0 06:44:00  1.129887E-05 4.906050E+02 4.906050E+02 8.683343E+11
              (01,50,09)  9.539460E-03 0.000000E+00 1.184986E-01 6.335579E-01
      203     0 06:46:00  1.140026E-05 4.906050E+02 4.906050E+02 8.683344E+11
              (01,50,09)  9.557910E-03 0.000000E+00 1.188023E-01 6.363923E-01
      204     0 06:48:00  1.150238E-05 4.906050E+02 4.906051E+02 8.683345E+11
              (01,50,09)  9.574978E-03 0.000000E+00 1.191090E-01 6.389542E-01
      205     0 06:50:00  1.160500E-05 4.906051E+02 4.906051E+02 8.683346E+11
              (01,50,09)  9.590121E-03 0.000000E+00 1.194436E-01 6.412201E-01
      206     0 06:52:00  1.170792E-05 4.906052E+02 4.906052E+02 8.683347E+11
              (01,50,09)  9.603546E-03 0.000000E+00 1.198173E-01 6.431796E-01
      207     0 06:54:00  1.181101E-05 4.906053E+02 4.906053E+02 8.683348E+11
              (01,50,09)  9.616094E-03 0.000000E+00 1.202251E-01 6.448380E-01
      208     0 06:56:00  1.191418E-05 4.906054E+02 4.906054E+02 8.683349E+11
              (01,50,09)  9.628780E-03 0.000000E+00 1.206478E-01 6.462118E-01
      209     0 06:58:00  1.201740E-05 4.906055E+02 4.906055E+02 8.683350E+11
              (01,50,09)  9.642215E-03 0.000000E+00 1.210622E-01 6.473204E-01
      210     0 07:00:00  1.212068E-05 4.906056E+02 4.906056E+02 8.683351E+11
              (01,50,09)  9.656407E-03 0.000000E+00 1.214539E-01 6.481791E-01
      211     0 07:02:00  1.222406E-05 4.906057E+02 4.906057E+02 8.683352E+11
              (01,50,09)  9.670950E-03 0.000000E+00 1.218216E-01 6.487954E-01
      212     0 07:04:00  1.232764E-05 4.906058E+02 4.906059E+02 8.683353E+11
              (01,50,09)  9.685321E-03 0.000000E+00 1.221732E-01 6.491702E-01
      213     0 07:06:00  1.243157E-05 4.906060E+02 4.906060E+02 8.683355E+11
              (01,50,09)  9.699143E-03 0.000000E+00 1.225195E-01 6.493028E-01
      214     0 07:08:00  1.253609E-05 4.906061E+02 4.906061E+02 8.683356E+11
              (01,50,09)  9.712354E-03 0.000000E+00 1.228680E-01 6.491981E-01
      215     0 07:10:00  1.264139E-05 4.906062E+02 4.906062E+02 8.683357E+11
              (01,50,09)  9.725232E-03 0.000000E+00 1.232196E-01 6.488702E-01
      216     0 07:12:00  1.274770E-05 4.906063E+02 4.906063E+02 8.683358E+11
              (01,50,09)  9.738293E-03 0.000000E+00 1.235677E-01 6.483431E-01
      217     0 07:14:00  1.285518E-05 4.906064E+02 4.906064E+02 8.683359E+11
              (01,50,09)  9.752116E-03 0.000000E+00 1.239004E-01 6.476451E-01
      218     0 07:16:00  1.296394E-05 4.906065E+02 4.906065E+02 8.683360E+11
              (01,50,09)  9.767140E-03 0.000000E+00 1.242045E-01 6.467992E-01
      219     0 07:18:00  1.307398E-05 4.906066E+02 4.906066E+02 8.683361E+11
              (01,50,09)  9.783555E-03 0.000000E+00 1.244697E-01 6.458207E-01
      220     0 07:20:00  1.318521E-05 4.906066E+02 4.906066E+02 8.683362E+11
              (01,50,09)  9.801266E-03 0.000000E+00 1.246910E-01 6.447157E-01
      221     0 07:22:00  1.329742E-05 4.906066E+02 4.906066E+02 8.683364E+11
              (01,50,09)  9.819861E-03 0.000000E+00 1.248699E-01 6.434827E-01
      222     0 07:24:00  1.341033E-05 4.906066E+02 4.906066E+02 8.683365E+11
              (01,50,09)  9.838730E-03 0.000000E+00 1.250152E-01 6.421153E-01
      223     0 07:26:00  1.352365E-05 4.906066E+02 4.906066E+02 8.683366E+11
              (01,50,09)  9.857394E-03 0.000000E+00 1.251399E-01 6.406075E-01
      224     0 07:28:00  1.363712E-05 4.906066E+02 4.906066E+02 8.683367E+11
              (01,50,09)  9.875710E-03 0.000000E+00 1.252548E-01 6.389565E-01
      225     0 07:30:00  1.375053E-05 4.906066E+02 4.906066E+02 8.683368E+11
              (01,50,09)  9.893759E-03 0.000000E+00 1.253630E-01 6.371634E-01
      226     0 07:32:00  1.386378E-05 4.906065E+02 4.906065E+02 8.683369E+11
              (01,50,09)  9.911692E-03 0.000000E+00 1.254634E-01 6.352324E-01
      227     0 07:34:00  1.397680E-05 4.906065E+02 4.906065E+02 8.683370E+11
              (01,50,09)  9.929668E-03 0.000000E+00 1.255530E-01 6.331676E-01
      228     0 07:36:00  1.408961E-05 4.906064E+02 4.906064E+02 8.683372E+11
              (01,50,09)  9.947725E-03 0.000000E+00 1.256290E-01 6.309697E-01
      229     0 07:38:00  1.420226E-05 4.906064E+02 4.906064E+02 8.683373E+11
              (01,50,09)  9.965591E-03 0.000000E+00 1.256910E-01 6.286352E-01
      230     0 07:40:00  1.431485E-05 4.906063E+02 4.906063E+02 8.683374E+11
              (01,50,09)  9.982705E-03 0.000000E+00 1.257459E-01 6.261600E-01
      231     0 07:42:00  1.442742E-05 4.906063E+02 4.906063E+02 8.683375E+11
              (01,50,09)  9.998440E-03 0.000000E+00 1.258071E-01 6.235448E-01
      232     0 07:44:00  1.454006E-05 4.906062E+02 4.906062E+02 8.683376E+11
              (01,50,09)  1.001236E-02 0.000000E+00 1.258898E-01 6.207989E-01
      233     0 07:46:00  1.465281E-05 4.906062E+02 4.906062E+02 8.683377E+11
              (01,50,09)  1.002443E-02 0.000000E+00 1.260051E-01 6.220795E-01
      234     0 07:48:00  1.476573E-05 4.906062E+02 4.906062E+02 8.683379E+11
              (01,50,09)  1.003508E-02 0.000000E+00 1.261555E-01 6.249258E-01
      235     0 07:50:00  1.487890E-05 4.906062E+02 4.906063E+02 8.683380E+11
              (01,50,09)  1.004505E-02 0.000000E+00 1.263334E-01 6.274528E-01
      236     0 07:52:00  1.499238E-05 4.906063E+02 4.906063E+02 8.683381E+11
              (01,50,09)  1.005503E-02 0.000000E+00 1.265240E-01 6.296665E-01
      237     0 07:54:00  1.510624E-05 4.906063E+02 4.906064E+02 8.683382E+11
              (01,50,09)  1.006537E-02 0.000000E+00 1.267142E-01 6.315818E-01
      238     0 07:56:00  1.522051E-05 4.906064E+02 4.906064E+02 8.683383E+11
              (01,50,09)  1.007607E-02 0.000000E+00 1.268976E-01 6.332219E-01
      239     0 07:58:00  1.533524E-05 4.906065E+02 4.906066E+02 8.683385E+11
              (01,50,09)  1.008693E-02 0.000000E+00 1.270757E-01 6.346157E-01
      240     0 08:00:00  1.545053E-05 4.906067E+02 4.906067E+02 8.683386E+11
              (01,50,09)  1.009780E-02 0.000000E+00 1.272545E-01 6.357943E-01
      241     0 08:02:00  1.556654E-05 4.906068E+02 4.906068E+02 8.683387E+11
              (01,50,09)  1.010879E-02 0.000000E+00 1.274389E-01 6.367869E-01
      242     0 08:04:00  1.568347E-05 4.906069E+02 4.906070E+02 8.683388E+11
              (01,50,09)  1.012037E-02 0.000000E+00 1.276279E-01 6.376190E-01
      243     0 08:06:00  1.580156E-05 4.906071E+02 4.906071E+02 8.683390E+11
              (01,50,09)  1.013323E-02 0.000000E+00 1.278131E-01 6.383116E-01
      244     0 08:08:00  1.592102E-05 4.906072E+02 4.906073E+02 8.683391E+11
              (01,50,09)  1.014809E-02 0.000000E+00 1.279803E-01 6.388823E-01
      245     0 08:10:00  1.604204E-05 4.906074E+02 4.906074E+02 8.683392E+11
              (01,50,09)  1.016545E-02 0.000000E+00 1.281145E-01 6.393443E-01
      246     0 08:12:00  1.616468E-05 4.906075E+02 4.906075E+02 8.683393E+11
              (01,50,09)  1.018545E-02 0.000000E+00 1.282057E-01 6.397059E-01
      247     0 08:14:00  1.628887E-05 4.906076E+02 4.906077E+02 8.683395E+11
              (01,50,09)  1.020785E-02 0.000000E+00 1.282517E-01 6.399733E-01
      248     0 08:16:00  1.641445E-05 4.906077E+02 4.906078E+02 8.683396E+11
              (01,50,09)  1.023213E-02 0.000000E+00 1.282581E-01 6.401480E-01
      249     0 08:18:00  1.654115E-05 4.906078E+02 4.906078E+02 8.683397E+11
              (01,50,09)  1.025771E-02 0.000000E+00 1.282367E-01 6.402218E-01
      250     0 08:20:00  1.666870E-05 4.906079E+02 4.906079E+02 8.683398E+11
              (01,50,09)  1.028414E-02 0.000000E+00 1.282018E-01 6.401781E-01
      251     0 08:22:00  1.679687E-05 4.906079E+02 4.906080E+02 8.683400E+11
              (01,50,09)  1.031130E-02 0.000000E+00 1.281639E-01 6.399925E-01
      252     0 08:24:00  1.692545E-05 4.906080E+02 4.906080E+02 8.683401E+11
              (01,50,09)  1.033935E-02 0.000000E+00 1.281265E-01 6.396339E-01
      253     0 08:26:00  1.705429E-05 4.906080E+02 4.906080E+02 8.683402E+11
              (01,50,09)  1.036839E-02 0.000000E+00 1.280873E-01 6.394928E-01
      254     0 08:28:00  1.718329E-05 4.906079E+02 4.906080E+02 8.683403E+11
              (01,50,09)  1.039820E-02 0.000000E+00 1.280452E-01 6.425946E-01
      255     0 08:30:00  1.731232E-05 4.906079E+02 4.906079E+02 8.683405E+11
              (01,50,09)  1.042831E-02 0.000000E+00 1.280056E-01 6.456251E-01
      256     0 08:32:00  1.744126E-05 4.906079E+02 4.906079E+02 8.683406E+11
              (01,50,09)  1.045811E-02 0.000000E+00 1.279800E-01 6.485492E-01
      257     0 08:34:00  1.757002E-05 4.906078E+02 4.906078E+02 8.683407E+11
              (01,50,09)  1.048699E-02 0.000000E+00 1.279828E-01 6.513342E-01
      258     0 08:36:00  1.769848E-05 4.906077E+02 4.906078E+02 8.683409E+11
              (01,50,09)  1.051448E-02 0.000000E+00 1.280289E-01 6.539570E-01
      259     0 08:38:00  1.782664E-05 4.906077E+02 4.906077E+02 8.683410E+11
              (01,50,09)  1.054050E-02 0.000000E+00 1.281299E-01 6.564087E-01
      260     0 08:40:00  1.795455E-05 4.906076E+02 4.906076E+02 8.683411E+11
              (01,50,09)  1.056535E-02 0.000000E+00 1.282890E-01 6.586949E-01
      261     0 08:42:00  1.808237E-05 4.906076E+02 4.906076E+02 8.683412E+11
              (01,50,09)  1.058958E-02 0.000000E+00 1.285003E-01 6.608314E-01
      262     0 08:44:00  1.821031E-05 4.906075E+02 4.906076E+02 8.683414E+11
              (01,50,09)  1.061369E-02 0.000000E+00 1.287533E-01 6.628377E-01
      263     0 08:46:00  1.833862E-05 4.906075E+02 4.906075E+02 8.683415E+11
              (01,50,09)  1.063808E-02 0.000000E+00 1.290368E-01 6.647311E-01
      264     0 08:48:00  1.846761E-05 4.906075E+02 4.906075E+02 8.683416E+11
              (01,50,09)  1.066288E-02 0.000000E+00 1.293430E-01 6.665242E-01
      265     0 08:50:00  1.859756E-05 4.906075E+02 4.906075E+02 8.683418E+11
              (01,50,09)  1.068810E-02 0.000000E+00 1.296685E-01 6.682271E-01
      266     0 08:52:00  1.872875E-05 4.906076E+02 4.906076E+02 8.683419E+11
              (01,50,09)  1.071380E-02 0.000000E+00 1.300133E-01 6.698516E-01
      267     0 08:54:00  1.886142E-05 4.906076E+02 4.906076E+02 8.683420E+11
              (01,50,09)  1.074025E-02 0.000000E+00 1.303755E-01 6.714146E-01
      268     0 08:56:00  1.899581E-05 4.906077E+02 4.906077E+02 8.683422E+11
              (01,50,09)  1.076791E-02 0.000000E+00 1.307487E-01 6.729371E-01
      269     0 08:58:00  1.913221E-05 4.906078E+02 4.906078E+02 8.683423E+11
              (01,50,09)  1.079731E-02 0.000000E+00 1.311217E-01 6.744434E-01
      270     0 09:00:00  1.927084E-05 4.906079E+02 4.906079E+02 8.683424E+11
              (01,50,09)  1.082889E-02 0.000000E+00 1.314815E-01 6.759612E-01
      271     0 09:02:00  1.941173E-05 4.906080E+02 4.906080E+02 8.683426E+11
              (01,50,09)  1.086293E-02 0.000000E+00 1.318173E-01 6.775074E-01
      272     0 09:04:00  1.955486E-05 4.906082E+02 4.906082E+02 8.683427E+11
              (01,50,09)  1.089965E-02 0.000000E+00 1.321210E-01 6.790712E-01
      273     0 09:06:00  1.970010E-05 4.906083E+02 4.906083E+02 8.683429E+11
              (01,50,09)  1.093882E-02 0.000000E+00 1.323853E-01 6.806277E-01
      274     0 09:08:00  1.984717E-05 4.906085E+02 4.906085E+02 8.683430E+11
              (01,50,09)  1.097919E-02 0.000000E+00 1.326135E-01 6.821577E-01
      275     0 09:10:00  1.999572E-05 4.906086E+02 4.906086E+02 8.683431E+11
              (01,50,09)  1.101943E-02 0.000000E+00 1.328319E-01 6.836425E-01
      276     0 09:12:00  2.014544E-05 4.906088E+02 4.906088E+02 8.683433E+11
              (01,50,09)  1.105967E-02 0.000000E+00 1.330679E-01 6.850603E-01
      277     0 09:14:00  2.029609E-05 4.906089E+02 4.906089E+02 8.683434E+11
              (01,50,09)  1.110078E-02 0.000000E+00 1.333163E-01 6.864038E-01
      278     0 09:16:00  2.044745E-05 4.906090E+02 4.906090E+02 8.683435E+11
              (01,50,09)  1.114270E-02 0.000000E+00 1.335566E-01 6.876863E-01
      279     0 09:18:00  2.059932E-05 4.906091E+02 4.906091E+02 8.683437E+11
              (01,50,09)  1.118492E-02 0.000000E+00 1.337893E-01 6.889210E-01
      280     0 09:20:00  2.075151E-05 4.906092E+02 4.906092E+02 8.683438E+11
              (01,50,09)  1.122769E-02 0.000000E+00 1.340238E-01 6.901029E-01
      281     0 09:22:00  2.090386E-05 4.906093E+02 4.906093E+02 8.683440E+11
              (01,50,09)  1.127127E-02 0.000000E+00 1.342515E-01 6.912140E-01
      282     0 09:24:00  2.105625E-05 4.906093E+02 4.906093E+02 8.683441E+11
              (01,50,09)  1.131484E-02 0.000000E+00 1.344657E-01 6.922340E-01
      283     0 09:26:00  2.120851E-05 4.906093E+02 4.906093E+02 8.683443E+11
              (01,50,09)  1.135729E-02 0.000000E+00 1.346836E-01 6.931404E-01
      284     0 09:28:00  2.136051E-05 4.906093E+02 4.906093E+02 8.683444E+11
              (01,50,09)  1.139814E-02 0.000000E+00 1.349275E-01 6.939081E-01
      285     0 09:30:00  2.151217E-05 4.906093E+02 4.906093E+02 8.683445E+11
              (01,50,09)  1.143714E-02 0.000000E+00 1.352065E-01 6.945205E-01
      286     0 09:32:00  2.166344E-05 4.906093E+02 4.906093E+02 8.683447E+11
              (01,50,09)  1.147405E-02 0.000000E+00 1.355258E-01 6.949800E-01
      287     0 09:34:00  2.181436E-05 4.906092E+02 4.906093E+02 8.683448E+11
              (01,50,09)  1.150912E-02 0.000000E+00 1.358897E-01 6.953044E-01
      288     0 09:36:00  2.196500E-05 4.906092E+02 4.906092E+02 8.683450E+11
              (01,50,09)  1.154292E-02 0.000000E+00 1.362918E-01 6.955161E-01
      289     0 09:38:00  2.211551E-05 4.906092E+02 4.906092E+02 8.683451E+11
              (01,50,09)  1.157588E-02 0.000000E+00 1.367181E-01 6.956370E-01
      290     0 09:40:00  2.226606E-05 4.906091E+02 4.906091E+02 8.683453E+11
              (01,50,09)  1.160812E-02 0.000000E+00 1.371586E-01 6.956870E-01
      291     0 09:42:00  2.241688E-05 4.906091E+02 4.906091E+02 8.683454E+11
              (01,50,09)  1.163962E-02 0.000000E+00 1.376095E-01 6.956808E-01
      292     0 09:44:00  2.256823E-05 4.906091E+02 4.906091E+02 8.683455E+11
              (01,50,09)  1.167028E-02 0.000000E+00 1.380697E-01 6.956290E-01
      293     0 09:46:00  2.272042E-05 4.906091E+02 4.906091E+02 8.683457E+11
              (01,50,09)  1.170003E-02 0.000000E+00 1.385404E-01 6.955436E-01
      294     0 09:48:00  2.287380E-05 4.906090E+02 4.906091E+02 8.683458E+11
              (01,50,09)  1.172905E-02 0.000000E+00 1.390221E-01 6.954424E-01
      295     0 09:50:00  2.302870E-05 4.906091E+02 4.906091E+02 8.683460E+11
              (01,50,09)  1.175774E-02 0.000000E+00 1.395094E-01 6.953481E-01
      296     0 09:52:00  2.318545E-05 4.906091E+02 4.906091E+02 8.683461E+11
              (01,50,09)  1.178651E-02 0.000000E+00 1.399924E-01 6.952865E-01
      297     0 09:54:00  2.334412E-05 4.906091E+02 4.906092E+02 8.683463E+11
              (01,50,09)  1.181570E-02 0.000000E+00 1.404610E-01 6.952828E-01
      298     0 09:56:00  2.350490E-05 4.906092E+02 4.906092E+02 8.683464E+11
              (01,50,09)  1.184559E-02 0.000000E+00 1.409062E-01 6.953555E-01
      299     0 09:58:00  2.366784E-05 4.906093E+02 4.906093E+02 8.683466E+11
              (01,50,09)  1.187627E-02 0.000000E+00 1.413207E-01 6.955121E-01
      300     0 10:00:00  2.383277E-05 4.906094E+02 4.906094E+02 8.683467E+11
              (01,50,09)  1.190760E-02 0.000000E+00 1.417006E-01 6.957565E-01
      301     0 10:02:00  2.399946E-05 4.906095E+02 4.906095E+02 8.683469E+11
              (01,50,09)  1.193928E-02 0.000000E+00 1.420480E-01 6.960942E-01
      302     0 10:04:00  2.416770E-05 4.906096E+02 4.906096E+02 8.683470E+11
              (01,50,09)  1.197118E-02 0.000000E+00 1.423686E-01 6.965209E-01
      303     0 10:06:00  2.433719E-05 4.906097E+02 4.906097E+02 8.683472E+11
              (01,50,09)  1.200353E-02 0.000000E+00 1.426639E-01 6.970210E-01
      304     0 10:08:00  2.450769E-05 4.906099E+02 4.906099E+02 8.683473E+11
              (01,50,09)  1.203620E-02 0.000000E+00 1.429276E-01 6.990438E-01
      305     0 10:10:00  2.467894E-05 4.906100E+02 4.906100E+02 8.683475E+11
              (01,50,09)  1.206840E-02 0.000000E+00 1.431618E-01 7.032565E-01
      306     0 10:12:00  2.485071E-05 4.906101E+02 4.906101E+02 8.683476E+11
              (01,50,09)  1.209996E-02 0.000000E+00 1.433839E-01 7.071412E-01
      307     0 10:14:00  2.502282E-05 4.906102E+02 4.906103E+02 8.683478E+11
              (01,50,09)  1.213178E-02 0.000000E+00 1.435971E-01 7.106820E-01
      308     0 10:16:00  2.519509E-05 4.906104E+02 4.906104E+02 8.683479E+11
              (01,50,09)  1.216404E-02 0.000000E+00 1.437799E-01 7.138601E-01
      309     0 10:18:00  2.536725E-05 4.906105E+02 4.906105E+02 8.683481E+11
              (01,50,09)  1.219535E-02 0.000000E+00 1.439291E-01 7.166545E-01
      310     0 10:20:00  2.553898E-05 4.906106E+02 4.906106E+02 8.683483E+11
              (01,50,09)  1.222470E-02 0.000000E+00 1.440764E-01 7.190500E-01
      311     0 10:22:00  2.570996E-05 4.906106E+02 4.906107E+02 8.683484E+11
              (01,50,09)  1.225252E-02 0.000000E+00 1.442427E-01 7.210288E-01
      312     0 10:24:00  2.587988E-05 4.906107E+02 4.906107E+02 8.683486E+11
              (01,50,09)  1.227915E-02 0.000000E+00 1.444188E-01 7.225634E-01
      313     0 10:26:00  2.604859E-05 4.906108E+02 4.906108E+02 8.683487E+11
              (01,50,09)  1.230429E-02 0.000000E+00 1.445993E-01 7.236543E-01
      314     0 10:28:00  2.621590E-05 4.906108E+02 4.906108E+02 8.683489E+11
              (01,50,09)  1.232800E-02 0.000000E+00 1.447918E-01 7.242866E-01
      315     0 10:30:00  2.638175E-05 4.906108E+02 4.906109E+02 8.683490E+11
              (01,50,09)  1.235072E-02 0.000000E+00 1.449945E-01 7.244536E-01
      316     0 10:32:00  2.654620E-05 4.906108E+02 4.906109E+02 8.683492E+11
              (01,50,09)  1.237236E-02 0.000000E+00 1.451991E-01 7.241555E-01
      317     0 10:34:00  2.670943E-05 4.906109E+02 4.906109E+02 8.683494E+11
              (01,50,09)  1.239258E-02 0.000000E+00 1.454091E-01 7.234077E-01
      318     0 10:36:00  2.687170E-05 4.906109E+02 4.906109E+02 8.683495E+11
              (01,50,09)  1.241139E-02 0.000000E+00 1.456331E-01 7.222319E-01
      319     0 10:38:00  2.703340E-05 4.906108E+02 4.906109E+02 8.683497E+11
              (01,50,09)  1.242887E-02 0.000000E+00 1.458713E-01 7.206487E-01
      320     0 10:40:00  2.719500E-05 4.906108E+02 4.906109E+02 8.683498E+11
              (01,50,09)  1.244490E-02 0.000000E+00 1.461238E-01 7.186769E-01
      321     0 10:42:00  2.735697E-05 4.906108E+02 4.906109E+02 8.683500E+11
              (01,50,09)  1.245964E-02 0.000000E+00 1.463948E-01 7.163370E-01
      322     0 10:44:00  2.751983E-05 4.906108E+02 4.906109E+02 8.683502E+11
              (01,50,09)  1.247375E-02 0.000000E+00 1.466819E-01 7.136527E-01
      323     0 10:46:00  2.768404E-05 4.906108E+02 4.906109E+02 8.683503E+11
              (01,50,09)  1.248803E-02 0.000000E+00 1.469718E-01 7.140186E-01
      324     0 10:48:00  2.784994E-05 4.906108E+02 4.906109E+02 8.683505E+11
              (01,50,09)  1.250309E-02 0.000000E+00 1.472476E-01 7.151111E-01
      325     0 10:50:00  2.801771E-05 4.906109E+02 4.906109E+02 8.683506E+11
              (01,50,09)  1.251917E-02 0.000000E+00 1.474970E-01 7.163030E-01
      326     0 10:52:00  2.818724E-05 4.906109E+02 4.906109E+02 8.683508E+11
              (01,50,09)  1.253618E-02 0.000000E+00 1.477153E-01 7.175951E-01
      327     0 10:54:00  2.835847E-05 4.906109E+02 4.906110E+02 8.683510E+11
              (01,50,09)  1.255389E-02 0.000000E+00 1.479051E-01 7.189789E-01
      328     0 10:56:00  2.853127E-05 4.906110E+02 4.906110E+02 8.683511E+11
              (01,50,09)  1.257213E-02 0.000000E+00 1.480719E-01 7.204443E-01
      329     0 10:58:00  2.870532E-05 4.906110E+02 4.906111E+02 8.683513E+11
              (01,50,09)  1.259087E-02 0.000000E+00 1.482198E-01 7.219839E-01
      330     0 11:00:00  2.888045E-05 4.906111E+02 4.906111E+02 8.683515E+11
              (01,50,09)  1.261016E-02 0.000000E+00 1.483506E-01 7.235989E-01
      331     0 11:02:00  2.905642E-05 4.906112E+02 4.906112E+02 8.683516E+11
              (01,50,09)  1.263026E-02 0.000000E+00 1.484631E-01 7.252960E-01
      332     0 11:04:00  2.923324E-05 4.906113E+02 4.906113E+02 8.683518E+11
              (01,50,09)  1.265154E-02 0.000000E+00 1.485531E-01 7.270733E-01
      333     0 11:06:00  2.941082E-05 4.906114E+02 4.906114E+02 8.683520E+11
              (01,50,09)  1.267427E-02 0.000000E+00 1.486119E-01 7.289185E-01
      334     0 11:08:00  2.958909E-05 4.906115E+02 4.906115E+02 8.683521E+11
              (01,50,09)  1.269806E-02 0.000000E+00 1.486339E-01 7.308236E-01
      335     0 11:10:00  2.976795E-05 4.906116E+02 4.906116E+02 8.683523E+11
              (01,50,09)  1.272207E-02 0.000000E+00 1.486288E-01 7.327803E-01
      336     0 11:12:00  2.994726E-05 4.906117E+02 4.906117E+02 8.683525E+11
              (01,50,09)  1.274618E-02 0.000000E+00 1.486156E-01 7.347645E-01
      337     0 11:14:00  3.012684E-05 4.906118E+02 4.906118E+02 8.683526E+11
              (01,50,09)  1.277094E-02 0.000000E+00 1.485966E-01 7.367465E-01
      338     0 11:16:00  3.030646E-05 4.906119E+02 4.906119E+02 8.683528E+11
              (01,50,09)  1.279607E-02 0.000000E+00 1.485599E-01 7.387122E-01
      339     0 11:18:00  3.048578E-05 4.906120E+02 4.906120E+02 8.683530E+11
              (01,50,09)  1.282045E-02 0.000000E+00 1.485137E-01 7.406568E-01
      340     0 11:20:00  3.066443E-05 4.906121E+02 4.906121E+02 8.683531E+11
              (01,50,09)  1.284392E-02 0.000000E+00 1.484835E-01 7.425684E-01
      341     0 11:22:00  3.084210E-05 4.906121E+02 4.906122E+02 8.683533E+11
              (01,50,09)  1.286734E-02 0.000000E+00 1.484723E-01 7.444319E-01
      342     0 11:24:00  3.101851E-05 4.906122E+02 4.906123E+02 8.683535E+11
              (01,50,09)  1.289091E-02 0.000000E+00 1.484623E-01 7.462395E-01
      343     0 11:26:00  3.119344E-05 4.906123E+02 4.906123E+02 8.683536E+11
              (01,50,09)  1.291395E-02 0.000000E+00 1.484510E-01 7.479875E-01
      344     0 11:28:00  3.136675E-05 4.906124E+02 4.906124E+02 8.683538E+11
              (01,50,09)  1.293611E-02 0.000000E+00 1.484537E-01 7.496648E-01
      345     0 11:30:00  3.153847E-05 4.906124E+02 4.906125E+02 8.683540E+11
              (01,50,09)  1.295738E-02 0.000000E+00 1.484783E-01 7.512559E-01
      346     0 11:32:00  3.170879E-05 4.906125E+02 4.906125E+02 8.683542E+11
              (01,50,09)  1.297763E-02 0.000000E+00 1.485260E-01 7.527510E-01
      347     0 11:34:00  3.187800E-05 4.906125E+02 4.906126E+02 8.683543E+11
              (01,50,09)  1.299682E-02 0.000000E+00 1.486013E-01 7.541487E-01
      348     0 11:36:00  3.204654E-05 4.906126E+02 4.906126E+02 8.683545E+11
              (01,50,09)  1.301516E-02 0.000000E+00 1.487056E-01 7.554503E-01
      349     0 11:38:00  3.221487E-05 4.906126E+02 4.906126E+02 8.683547E+11
              (01,50,09)  1.303276E-02 0.000000E+00 1.488342E-01 7.566606E-01
      350     0 11:40:00  3.238348E-05 4.906126E+02 4.906127E+02 8.683549E+11
              (01,50,09)  1.304954E-02 0.000000E+00 1.489866E-01 7.577898E-01
      351     0 11:42:00  3.255283E-05 4.906127E+02 4.906127E+02 8.683550E+11
              (01,50,09)  1.306576E-02 0.000000E+00 1.491645E-01 7.588504E-01
      352     0 11:44:00  3.272331E-05 4.906127E+02 4.906127E+02 8.683552E+11
              (01,50,09)  1.308189E-02 0.000000E+00 1.493627E-01 7.598533E-01
      353     0 11:46:00  3.289527E-05 4.906127E+02 4.906128E+02 8.683554E+11
              (01,50,09)  1.309819E-02 0.000000E+00 1.495708E-01 7.608104E-01
      354     0 11:48:00  3.306890E-05 4.906128E+02 4.906128E+02 8.683556E+11
              (01,50,09)  1.311469E-02 0.000000E+00 1.497835E-01 7.617344E-01
      355     0 11:50:00  3.324423E-05 4.906128E+02 4.906128E+02 8.683557E+11
              (01,50,09)  1.313144E-02 0.000000E+00 1.499999E-01 7.626364E-01
      356     0 11:52:00  3.342147E-05 4.906128E+02 4.906129E+02 8.683559E+11
              (01,50,09)  1.314862E-02 0.000000E+00 1.502183E-01 7.635257E-01
      357     0 11:54:00  3.360073E-05 4.906129E+02 4.906129E+02 8.683561E+11
              (01,50,09)  1.316645E-02 0.000000E+00 1.504346E-01 7.644132E-01
      358     0 11:56:00  3.378201E-05 4.906129E+02 4.906130E+02 8.683563E+11
              (01,50,09)  1.318517E-02 0.000000E+00 1.506437E-01 7.653109E-01
      359     0 11:58:00  3.396538E-05 4.906130E+02 4.906130E+02 8.683564E+11
              (01,50,09)  1.320499E-02 0.000000E+00 1.508390E-01 7.662301E-01
      360     0 12:00:00  3.415086E-05 4.906131E+02 4.906131E+02 8.683566E+11
              (01,50,09)  1.322602E-02 0.000000E+00 1.510152E-01 7.671818E-01
      WRT_HIS   - wrote history  fields (Index=1,1) into time record = 0000002
      WRT_AVG   - wrote averaged fields into time record =             0000001
      WRT_RST   - wrote re-start fields (Index=1,1) into time record = 0000001
      361     0 12:02:00  3.433844E-05 4.906131E+02 4.906132E+02 8.683568E+11
              (01,50,09)  1.324831E-02 0.000000E+00 1.511693E-01 7.681738E-01
      362     0 12:04:00  3.452781E-05 4.906132E+02 4.906132E+02 8.683570E+11
              (01,50,09)  1.326626E-02 0.000000E+00 1.512998E-01 7.692032E-01
      363     0 12:06:00  3.471870E-05 4.906133E+02 4.906133E+02 8.683572E+11
              (01,50,09)  1.328347E-02 0.000000E+00 1.513640E-01 7.702470E-01
      364     0 12:08:00  3.491087E-05 4.906133E+02 4.906134E+02 8.683573E+11
              (01,50,09)  1.330134E-02 0.000000E+00 1.514400E-01 7.712790E-01
      365     0 12:10:00  3.510406E-05 4.906134E+02 4.906134E+02 8.683575E+11
              (01,50,09)  1.332020E-02 0.000000E+00 1.515000E-01 7.722992E-01
      366     0 12:12:00  3.529793E-05 4.906135E+02 4.906135E+02 8.683577E+11
              (01,50,09)  1.333958E-02 0.000000E+00 1.515362E-01 7.733187E-01
      367     0 12:14:00  3.549211E-05 4.906135E+02 4.906136E+02 8.683579E+11
              (01,50,09)  1.335943E-02 0.000000E+00 1.515566E-01 7.743343E-01
      368     0 12:16:00  3.568619E-05 4.906136E+02 4.906136E+02 8.683581E+11
              (01,50,09)  1.337952E-02 0.000000E+00 1.515598E-01 7.753288E-01
      369     0 12:18:00  3.587977E-05 4.906137E+02 4.906137E+02 8.683582E+11
              (01,50,09)  1.339908E-02 0.000000E+00 1.515511E-01 7.762831E-01
      370     0 12:20:00  3.607244E-05 4.906137E+02 4.906138E+02 8.683584E+11
              (01,50,09)  1.341783E-02 0.000000E+00 1.515466E-01 7.771757E-01
      371     0 12:22:00  3.626386E-05 4.906138E+02 4.906138E+02 8.683586E+11
              (01,50,09)  1.343582E-02 0.000000E+00 1.515508E-01 7.779805E-01
      372     0 12:24:00  3.645378E-05 4.906139E+02 4.906139E+02 8.683588E+11
              (01,50,09)  1.345240E-02 0.000000E+00 1.515624E-01 7.786752E-01
      373     0 12:26:00  3.664199E-05 4.906139E+02 4.906140E+02 8.683590E+11
              (01,50,09)  1.346665E-02 0.000000E+00 1.515963E-01 7.792486E-01
      374     0 12:28:00  3.682840E-05 4.906140E+02 4.906140E+02 8.683591E+11
              (01,50,09)  1.347842E-02 0.000000E+00 1.516727E-01 7.796969E-01
      375     0 12:30:00  3.701310E-05 4.906141E+02 4.906141E+02 8.683593E+11
              (01,50,09)  1.348820E-02 0.000000E+00 1.517942E-01 7.800205E-01
      376     0 12:32:00  3.719629E-05 4.906141E+02 4.906142E+02 8.683595E+11
              (01,50,09)  1.349638E-02 0.000000E+00 1.519509E-01 7.802268E-01
      377     0 12:34:00  3.737827E-05 4.906142E+02 4.906142E+02 8.683597E+11
              (01,50,09)  1.350306E-02 0.000000E+00 1.521349E-01 7.803280E-01
      378     0 12:36:00  3.755939E-05 4.906143E+02 4.906143E+02 8.683599E+11
              (01,50,09)  1.350814E-02 0.000000E+00 1.523437E-01 7.803347E-01
      379     0 12:38:00  3.774004E-05 4.906143E+02 4.906144E+02 8.683600E+11
              (01,50,09)  1.351140E-02 0.000000E+00 1.525802E-01 7.802558E-01
      380     0 12:40:00  3.792067E-05 4.906144E+02 4.906145E+02 8.683602E+11
              (01,50,09)  1.351295E-02 0.000000E+00 1.528491E-01 7.801052E-01
      381     0 12:42:00  3.810176E-05 4.906145E+02 4.906145E+02 8.683604E+11
              (01,50,09)  1.351331E-02 0.000000E+00 1.531487E-01 7.799049E-01
      382     0 12:44:00  3.828380E-05 4.906146E+02 4.906146E+02 8.683606E+11
              (01,50,09)  1.351309E-02 0.000000E+00 1.534676E-01 7.796834E-01
      383     0 12:46:00  3.846726E-05 4.906147E+02 4.906147E+02 8.683608E+11
              (01,50,09)  1.351282E-02 0.000000E+00 1.537920E-01 7.794725E-01
      384     0 12:48:00  3.865249E-05 4.906147E+02 4.906148E+02 8.683609E+11
              (01,50,09)  1.351292E-02 0.000000E+00 1.541105E-01 7.793036E-01
      385     0 12:50:00  3.883983E-05 4.906148E+02 4.906149E+02 8.683611E+11
              (01,50,09)  1.351376E-02 0.000000E+00 1.544132E-01 7.792038E-01
      386     0 12:52:00  3.902950E-05 4.906149E+02 4.906149E+02 8.683613E+11
              (01,50,09)  1.351569E-02 0.000000E+00 1.546914E-01 7.791942E-01
      387     0 12:54:00  3.922163E-05 4.906150E+02 4.906150E+02 8.683615E+11
              (01,50,09)  1.351903E-02 0.000000E+00 1.549368E-01 7.807546E-01
      388     0 12:56:00  3.941634E-05 4.906150E+02 4.906151E+02 8.683617E+11
              (01,50,09)  1.352399E-02 0.000000E+00 1.551411E-01 7.837123E-01
      389     0 12:58:00  3.961356E-05 4.906151E+02 4.906151E+02 8.683618E+11
              (01,50,09)  1.353051E-02 0.000000E+00 1.552988E-01 7.865322E-01
      390     0 13:00:00  3.981325E-05 4.906151E+02 4.906152E+02 8.683620E+11
              (01,50,09)  1.353832E-02 0.000000E+00 1.554103E-01 7.892004E-01
      391     0 13:02:00  4.001505E-05 4.906152E+02 4.906152E+02 8.683622E+11
              (01,50,09)  1.354706E-02 0.000000E+00 1.554807E-01 7.917096E-01
      392     0 13:04:00  4.021856E-05 4.906152E+02 4.906153E+02 8.683624E+11
              (01,50,09)  1.355654E-02 0.000000E+00 1.555173E-01 7.940418E-01
      393     0 13:06:00  4.042334E-05 4.906153E+02 4.906153E+02 8.683626E+11
              (01,50,09)  1.356687E-02 0.000000E+00 1.555235E-01 7.961815E-01
      394     0 13:08:00  4.062887E-05 4.906153E+02 4.906154E+02 8.683627E+11
              (01,50,09)  1.357805E-02 0.000000E+00 1.554965E-01 7.981106E-01
      395     0 13:10:00  4.083457E-05 4.906153E+02 4.906154E+02 8.683629E+11
              (01,50,09)  1.358949E-02 0.000000E+00 1.554355E-01 7.998046E-01
      396     0 13:12:00  4.103986E-05 4.906154E+02 4.906154E+02 8.683631E+11
              (01,50,09)  1.360020E-02 0.000000E+00 1.553544E-01 8.012469E-01
      397     0 13:14:00  4.124417E-05 4.906154E+02 4.906154E+02 8.683633E+11
              (01,50,09)  1.360970E-02 0.000000E+00 1.552747E-01 8.024217E-01
      398     0 13:16:00  4.144700E-05 4.906154E+02 4.906155E+02 8.683635E+11
              (01,50,09)  1.361809E-02 0.000000E+00 1.552076E-01 8.033176E-01
      399     0 13:18:00  4.164797E-05 4.906154E+02 4.906155E+02 8.683636E+11
              (01,50,09)  1.362540E-02 0.000000E+00 1.551510E-01 8.039262E-01
      400     0 13:20:00  4.184680E-05 4.906155E+02 4.906155E+02 8.683638E+11
              (01,50,09)  1.363116E-02 0.000000E+00 1.551063E-01 8.042378E-01
      401     0 13:22:00  4.204329E-05 4.906155E+02 4.906155E+02 8.683640E+11
              (01,50,09)  1.363498E-02 0.000000E+00 1.550843E-01 8.042462E-01
      402     0 13:24:00  4.223740E-05 4.906155E+02 4.906156E+02 8.683642E+11
              (01,50,09)  1.363689E-02 0.000000E+00 1.550952E-01 8.039487E-01
      403     0 13:26:00  4.242922E-05 4.906156E+02 4.906156E+02 8.683644E+11
              (01,50,09)  1.363724E-02 0.000000E+00 1.551394E-01 8.033497E-01
      404     0 13:28:00  4.261896E-05 4.906156E+02 4.906157E+02 8.683645E+11
              (01,50,09)  1.363639E-02 0.000000E+00 1.552103E-01 8.024639E-01
      405     0 13:30:00  4.280691E-05 4.906157E+02 4.906157E+02 8.683647E+11
              (01,50,09)  1.363445E-02 0.000000E+00 1.553015E-01 8.013090E-01
      406     0 13:32:00  4.299342E-05 4.906158E+02 4.906158E+02 8.683649E+11
              (01,50,09)  1.363133E-02 0.000000E+00 1.554117E-01 7.999045E-01
      407     0 13:34:00  4.317888E-05 4.906159E+02 4.906159E+02 8.683651E+11
              (01,50,09)  1.362705E-02 0.000000E+00 1.555438E-01 7.982788E-01
      408     0 13:36:00  4.336371E-05 4.906159E+02 4.906160E+02 8.683653E+11
              (01,50,09)  1.362190E-02 0.000000E+00 1.556986E-01 7.964686E-01
      409     0 13:38:00  4.354835E-05 4.906161E+02 4.906161E+02 8.683654E+11
              (01,50,09)  1.361638E-02 0.000000E+00 1.558703E-01 7.945035E-01
      410     0 13:40:00  4.373325E-05 4.906162E+02 4.906162E+02 8.683656E+11
              (01,50,09)  1.361096E-02 0.000000E+00 1.560487E-01 7.924136E-01
      411     0 13:42:00  4.391879E-05 4.906163E+02 4.906163E+02 8.683658E+11
              (01,50,09)  1.360596E-02 0.000000E+00 1.562240E-01 7.906548E-01
      412     0 13:44:00  4.410533E-05 4.906164E+02 4.906165E+02 8.683660E+11
              (01,50,09)  1.360159E-02 0.000000E+00 1.563895E-01 7.937619E-01
      413     0 13:46:00  4.429302E-05 4.906165E+02 4.906166E+02 8.683662E+11
              (01,50,09)  1.359811E-02 0.000000E+00 1.565405E-01 7.966314E-01
      414     0 13:48:00  4.448222E-05 4.906166E+02 4.906167E+02 8.683663E+11
              (01,50,09)  1.359590E-02 0.000000E+00 1.566712E-01 7.992602E-01
      415     0 13:50:00  4.467321E-05 4.906168E+02 4.906168E+02 8.683665E+11
              (01,50,09)  1.359514E-02 0.000000E+00 1.567732E-01 8.016441E-01
      416     0 13:52:00  4.486601E-05 4.906169E+02 4.906169E+02 8.683667E+11
              (01,50,09)  1.359567E-02 0.000000E+00 1.568416E-01 8.037796E-01
[...]
    21490    29 20:20:00  9.783436E-04 4.919330E+02 4.919340E+02 8.721600E+11
              (01,50,08)  8.228455E-03 0.000000E+00 1.115417E-01 7.585627E-01
    21491    29 20:22:00  9.783615E-04 4.919331E+02 4.919341E+02 8.721602E+11
              (01,50,08)  8.230241E-03 0.000000E+00 1.115313E-01 7.587052E-01
    21492    29 20:24:00  9.783797E-04 4.919331E+02 4.919341E+02 8.721604E+11
              (01,50,08)  8.232031E-03 0.000000E+00 1.115208E-01 7.588468E-01
    21493    29 20:26:00  9.783981E-04 4.919332E+02 4.919342E+02 8.721606E+11
              (01,50,08)  8.233826E-03 0.000000E+00 1.115103E-01 7.589876E-01
    21494    29 20:28:00  9.784169E-04 4.919333E+02 4.919342E+02 8.721607E+11
              (01,50,08)  8.235619E-03 0.000000E+00 1.114996E-01 7.591275E-01
    21495    29 20:30:00  9.784359E-04 4.919333E+02 4.919343E+02 8.721609E+11
              (01,50,08)  8.237402E-03 0.000000E+00 1.114889E-01 7.592663E-01
    21496    29 20:32:00  9.784552E-04 4.919334E+02 4.919344E+02 8.721611E+11
              (01,50,08)  8.239180E-03 0.000000E+00 1.114783E-01 7.594039E-01
    21497    29 20:34:00  9.784748E-04 4.919335E+02 4.919344E+02 8.721613E+11
              (01,50,08)  8.240967E-03 0.000000E+00 1.114678E-01 7.595404E-01
    21498    29 20:36:00  9.784947E-04 4.919335E+02 4.919345E+02 8.721615E+11
              (01,50,08)  8.242761E-03 0.000000E+00 1.114572E-01 7.596755E-01
    21499    29 20:38:00  9.785148E-04 4.919336E+02 4.919346E+02 8.721616E+11
              (01,50,08)  8.244548E-03 0.000000E+00 1.114463E-01 7.598093E-01
    21500    29 20:40:00  9.785352E-04 4.919337E+02 4.919346E+02 8.721618E+11
              (01,50,08)  8.246330E-03 0.000000E+00 1.114356E-01 7.599417E-01
    21501    29 20:42:00  9.785558E-04 4.919337E+02 4.919347E+02 8.721620E+11
              (01,50,08)  8.248117E-03 0.000000E+00 1.114249E-01 7.600725E-01
    21502    29 20:44:00  9.785768E-04 4.919338E+02 4.919348E+02 8.721622E+11
              (01,50,08)  8.249908E-03 0.000000E+00 1.114142E-01 7.602019E-01
    21503    29 20:46:00  9.785979E-04 4.919338E+02 4.919348E+02 8.721624E+11
              (01,50,08)  8.251693E-03 0.000000E+00 1.114033E-01 7.603295E-01
    21504    29 20:48:00  9.786194E-04 4.919339E+02 4.919349E+02 8.721625E+11
              (01,50,08)  8.253474E-03 0.000000E+00 1.113925E-01 7.604555E-01
    21505    29 20:50:00  9.786411E-04 4.919340E+02 4.919349E+02 8.721627E+11
              (01,50,08)  8.255259E-03 0.000000E+00 1.113818E-01 7.605797E-01
    21506    29 20:52:00  9.786629E-04 4.919340E+02 4.919350E+02 8.721629E+11
              (01,50,08)  8.257041E-03 0.000000E+00 1.113710E-01 7.607020E-01
    21507    29 20:54:00  9.786851E-04 4.919341E+02 4.919351E+02 8.721631E+11
              (01,50,08)  8.258816E-03 0.000000E+00 1.113601E-01 7.608224E-01
    21508    29 20:56:00  9.787075E-04 4.919342E+02 4.919351E+02 8.721633E+11
              (01,50,08)  8.260586E-03 0.000000E+00 1.113494E-01 7.609409E-01
    21509    29 20:58:00  9.787301E-04 4.919342E+02 4.919352E+02 8.721634E+11
              (01,50,08)  8.262355E-03 0.000000E+00 1.113387E-01 7.610573E-01
    21510    29 21:00:00  9.787530E-04 4.919343E+02 4.919353E+02 8.721636E+11
              (01,50,08)  8.264121E-03 0.000000E+00 1.113280E-01 7.611716E-01
    21511    29 21:02:00  9.787761E-04 4.919343E+02 4.919353E+02 8.721638E+11
              (01,50,08)  8.265879E-03 0.000000E+00 1.113172E-01 7.612837E-01
    21512    29 21:04:00  9.787994E-04 4.919344E+02 4.919354E+02 8.721640E+11
              (01,50,08)  8.267631E-03 0.000000E+00 1.113065E-01 7.613936E-01
    21513    29 21:06:00  9.788230E-04 4.919345E+02 4.919355E+02 8.721642E+11
              (01,50,08)  8.269375E-03 0.000000E+00 1.112958E-01 7.615013E-01
    21514    29 21:08:00  9.788467E-04 4.919345E+02 4.919355E+02 8.721643E+11
              (01,50,08)  8.271111E-03 0.000000E+00 1.112852E-01 7.616066E-01
    21515    29 21:10:00  9.788707E-04 4.919346E+02 4.919356E+02 8.721645E+11
              (01,50,08)  8.272840E-03 0.000000E+00 1.112746E-01 7.617095E-01
    21516    29 21:12:00  9.788949E-04 4.919347E+02 4.919356E+02 8.721647E+11
              (01,50,08)  8.274558E-03 0.000000E+00 1.112640E-01 7.618100E-01
    21517    29 21:14:00  9.789193E-04 4.919347E+02 4.919357E+02 8.721649E+11
              (01,50,08)  8.276266E-03 0.000000E+00 1.112534E-01 7.619080E-01
    21518    29 21:16:00  9.789439E-04 4.919348E+02 4.919358E+02 8.721651E+11
              (01,50,08)  8.277965E-03 0.000000E+00 1.112429E-01 7.620035E-01
    21519    29 21:18:00  9.789679E-04 4.919349E+02 4.919358E+02 8.721652E+11
              (01,50,08)  8.279651E-03 0.000000E+00 1.112323E-01 7.620964E-01
    21520    29 21:20:00  9.789926E-04 4.919349E+02 4.919359E+02 8.721654E+11
              (01,50,08)  8.281323E-03 0.000000E+00 1.112218E-01 7.621868E-01
    21521    29 21:22:00  9.790173E-04 4.919350E+02 4.919360E+02 8.721656E+11
              (01,50,08)  8.282984E-03 0.000000E+00 1.112113E-01 7.622745E-01
    21522    29 21:24:00  9.790421E-04 4.919350E+02 4.919360E+02 8.721658E+11
              (01,50,08)  8.284634E-03 0.000000E+00 1.112008E-01 7.623595E-01
    21523    29 21:26:00  9.790672E-04 4.919351E+02 4.919361E+02 8.721660E+11
              (01,50,08)  8.286270E-03 0.000000E+00 1.111903E-01 7.624419E-01
    21524    29 21:28:00  9.790924E-04 4.919352E+02 4.919361E+02 8.721661E+11
              (01,50,08)  8.287890E-03 0.000000E+00 1.111797E-01 7.625216E-01
    21525    29 21:30:00  9.791178E-04 4.919352E+02 4.919362E+02 8.721663E+11
              (01,50,08)  8.289493E-03 0.000000E+00 1.111691E-01 7.625986E-01
    21526    29 21:32:00  9.791433E-04 4.919353E+02 4.919363E+02 8.721665E+11
              (01,50,08)  8.291079E-03 0.000000E+00 1.111585E-01 7.626728E-01
    21527    29 21:34:00  9.791690E-04 4.919354E+02 4.919363E+02 8.721667E+11
              (01,50,08)  8.292649E-03 0.000000E+00 1.111479E-01 7.627442E-01
    21528    29 21:36:00  9.791949E-04 4.919354E+02 4.919364E+02 8.721669E+11
              (01,50,08)  8.294201E-03 0.000000E+00 1.111372E-01 7.628128E-01
    21529    29 21:38:00  9.792209E-04 4.919355E+02 4.919365E+02 8.721670E+11
              (01,50,08)  8.295734E-03 0.000000E+00 1.111265E-01 7.628787E-01
    21530    29 21:40:00  9.792471E-04 4.919356E+02 4.919365E+02 8.721672E+11
              (01,50,08)  8.297247E-03 0.000000E+00 1.111157E-01 7.629418E-01
    21531    29 21:42:00  9.792734E-04 4.919356E+02 4.919366E+02 8.721674E+11
              (01,50,08)  8.298740E-03 0.000000E+00 1.111049E-01 7.630020E-01
    21532    29 21:44:00  9.792998E-04 4.919357E+02 4.919367E+02 8.721676E+11
              (01,50,08)  8.300211E-03 0.000000E+00 1.110940E-01 7.630594E-01
    21533    29 21:46:00  9.793263E-04 4.919357E+02 4.919367E+02 8.721678E+11
              (01,50,08)  8.301659E-03 0.000000E+00 1.110830E-01 7.631140E-01
    21534    29 21:48:00  9.793530E-04 4.919358E+02 4.919368E+02 8.721679E+11
              (01,50,08)  8.303083E-03 0.000000E+00 1.110719E-01 7.631658E-01
    21535    29 21:50:00  9.793798E-04 4.919359E+02 4.919368E+02 8.721681E+11
              (01,50,08)  8.304485E-03 0.000000E+00 1.110608E-01 7.632147E-01
    21536    29 21:52:00  9.794067E-04 4.919359E+02 4.919369E+02 8.721683E+11
              (01,50,08)  8.305860E-03 0.000000E+00 1.110495E-01 7.632608E-01
    21537    29 21:54:00  9.794338E-04 4.919360E+02 4.919370E+02 8.721685E+11
              (01,50,08)  8.307208E-03 0.000000E+00 1.110382E-01 7.633040E-01
    21538    29 21:56:00  9.794609E-04 4.919361E+02 4.919370E+02 8.721687E+11
              (01,50,08)  8.308530E-03 0.000000E+00 1.110268E-01 7.633445E-01
    21539    29 21:58:00  9.794882E-04 4.919361E+02 4.919371E+02 8.721688E+11
              (01,50,08)  8.309825E-03 0.000000E+00 1.110152E-01 7.633821E-01
    21540    29 22:00:00  9.795156E-04 4.919362E+02 4.919372E+02 8.721690E+11
              (01,50,08)  8.311094E-03 0.000000E+00 1.110035E-01 7.634169E-01
    21541    29 22:02:00  9.795441E-04 4.919362E+02 4.919372E+02 8.721692E+11
              (01,50,08)  8.312332E-03 0.000000E+00 1.109917E-01 7.634490E-01
    21542    29 22:04:00  9.795720E-04 4.919363E+02 4.919373E+02 8.721694E+11
              (01,50,08)  8.313538E-03 0.000000E+00 1.109797E-01 7.634782E-01
    21543    29 22:06:00  9.796003E-04 4.919364E+02 4.919374E+02 8.721696E+11
              (01,50,08)  8.314714E-03 0.000000E+00 1.109677E-01 7.635047E-01
    21544    29 22:08:00  9.796286E-04 4.919364E+02 4.919374E+02 8.721697E+11
              (01,50,08)  8.315860E-03 0.000000E+00 1.109554E-01 7.635284E-01
    21545    29 22:10:00  9.796570E-04 4.919365E+02 4.919375E+02 8.721699E+11
              (01,50,08)  8.316977E-03 0.000000E+00 1.109430E-01 7.635494E-01
    21546    29 22:12:00  9.796856E-04 4.919366E+02 4.919375E+02 8.721701E+11
              (01,50,08)  8.318061E-03 0.000000E+00 1.109304E-01 7.635676E-01
    21547    29 22:14:00  9.797142E-04 4.919366E+02 4.919376E+02 8.721703E+11
              (01,50,08)  8.319112E-03 0.000000E+00 1.109175E-01 7.635831E-01
    21548    29 22:16:00  9.797429E-04 4.919367E+02 4.919377E+02 8.721705E+11
              (01,50,08)  8.320131E-03 0.000000E+00 1.109046E-01 7.635962E-01
    21549    29 22:18:00  9.797718E-04 4.919368E+02 4.919377E+02 8.721706E+11
              (01,50,08)  8.321118E-03 0.000000E+00 1.108913E-01 7.636068E-01
    21550    29 22:20:00  9.798007E-04 4.919368E+02 4.919378E+02 8.721708E+11
              (01,50,08)  8.322069E-03 0.000000E+00 1.108779E-01 7.636150E-01
    21551    29 22:22:00  9.798297E-04 4.919369E+02 4.919379E+02 8.721710E+11
              (01,50,08)  8.322982E-03 0.000000E+00 1.108642E-01 7.636206E-01
    21552    29 22:24:00  9.798588E-04 4.919369E+02 4.919379E+02 8.721712E+11
              (01,50,08)  8.323861E-03 0.000000E+00 1.108504E-01 7.636238E-01
    21553    29 22:26:00  9.798880E-04 4.919370E+02 4.919380E+02 8.721714E+11
              (01,50,08)  8.324711E-03 0.000000E+00 1.108363E-01 7.636246E-01
    21554    29 22:28:00  9.799173E-04 4.919371E+02 4.919381E+02 8.721715E+11
              (01,50,08)  8.325527E-03 0.000000E+00 1.108219E-01 7.636230E-01
    21555    29 22:30:00  9.799467E-04 4.919371E+02 4.919381E+02 8.721717E+11
              (01,50,08)  8.326306E-03 0.000000E+00 1.108071E-01 7.636189E-01
    21556    29 22:32:00  9.799761E-04 4.919372E+02 4.919382E+02 8.721719E+11
              (01,50,08)  8.327048E-03 0.000000E+00 1.107921E-01 7.636125E-01
    21557    29 22:34:00  9.800057E-04 4.919373E+02 4.919382E+02 8.721721E+11
              (01,50,08)  8.327753E-03 0.000000E+00 1.107769E-01 7.636037E-01
    21558    29 22:36:00  9.800353E-04 4.919373E+02 4.919383E+02 8.721723E+11
              (01,50,08)  8.328419E-03 0.000000E+00 1.107614E-01 7.635925E-01
    21559    29 22:38:00  9.800650E-04 4.919374E+02 4.919384E+02 8.721724E+11
              (01,50,08)  8.329050E-03 0.000000E+00 1.107456E-01 7.635789E-01
    21560    29 22:40:00  9.800947E-04 4.919375E+02 4.919384E+02 8.721726E+11
              (01,50,08)  8.329649E-03 0.000000E+00 1.107296E-01 7.635630E-01
    21561    29 22:42:00  9.801246E-04 4.919375E+02 4.919385E+02 8.721728E+11
              (01,50,08)  8.330211E-03 0.000000E+00 1.107131E-01 7.635448E-01
    21562    29 22:44:00  9.801545E-04 4.919376E+02 4.919386E+02 8.721730E+11
              (01,50,08)  8.330729E-03 0.000000E+00 1.106963E-01 7.635243E-01
    21563    29 22:46:00  9.801845E-04 4.919376E+02 4.919386E+02 8.721732E+11
              (01,50,08)  8.331206E-03 0.000000E+00 1.106794E-01 7.635014E-01
    21564    29 22:48:00  9.802145E-04 4.919377E+02 4.919387E+02 8.721733E+11
              (01,50,08)  8.331653E-03 0.000000E+00 1.106621E-01 7.634763E-01
    21565    29 22:50:00  9.802447E-04 4.919378E+02 4.919387E+02 8.721735E+11
              (01,50,08)  8.332069E-03 0.000000E+00 1.106445E-01 7.634490E-01
    21566    29 22:52:00  9.802749E-04 4.919378E+02 4.919388E+02 8.721737E+11
              (01,50,08)  8.332445E-03 0.000000E+00 1.106264E-01 7.634194E-01
    21567    29 22:54:00  9.803051E-04 4.919379E+02 4.919389E+02 8.721739E+11
              (01,50,08)  8.332778E-03 0.000000E+00 1.106080E-01 7.633877E-01
    21568    29 22:56:00  9.803354E-04 4.919380E+02 4.919389E+02 8.721741E+11
              (01,50,08)  8.333072E-03 0.000000E+00 1.105893E-01 7.633538E-01
    21569    29 22:58:00  9.803658E-04 4.919380E+02 4.919390E+02 8.721742E+11
              (01,50,08)  8.333333E-03 0.000000E+00 1.105704E-01 7.633177E-01
    21570    29 23:00:00  9.803962E-04 4.919381E+02 4.919391E+02 8.721744E+11
              (01,50,08)  8.333559E-03 0.000000E+00 1.105511E-01 7.632796E-01
    21571    29 23:02:00  9.804267E-04 4.919381E+02 4.919391E+02 8.721746E+11
              (01,50,08)  8.333749E-03 0.000000E+00 1.105314E-01 7.632392E-01
    21572    29 23:04:00  9.804572E-04 4.919382E+02 4.919392E+02 8.721748E+11
              (01,50,08)  8.333902E-03 0.000000E+00 1.105113E-01 7.631968E-01
    21573    29 23:06:00  9.804878E-04 4.919383E+02 4.919393E+02 8.721750E+11
              (01,50,08)  8.334018E-03 0.000000E+00 1.104909E-01 7.631523E-01
    21574    29 23:08:00  9.805184E-04 4.919383E+02 4.919393E+02 8.721751E+11
              (01,50,08)  8.334097E-03 0.000000E+00 1.104702E-01 7.631058E-01
    21575    29 23:10:00  9.805491E-04 4.919384E+02 4.919394E+02 8.721753E+11
              (01,50,08)  8.334140E-03 0.000000E+00 1.104491E-01 7.630574E-01
    21576    29 23:12:00  9.805798E-04 4.919385E+02 4.919394E+02 8.721755E+11
              (01,50,08)  8.334148E-03 0.000000E+00 1.104277E-01 7.630068E-01
    21577    29 23:14:00  9.806106E-04 4.919385E+02 4.919395E+02 8.721757E+11
              (01,50,08)  8.334123E-03 0.000000E+00 1.104059E-01 7.629542E-01
    21578    29 23:16:00  9.806413E-04 4.919386E+02 4.919396E+02 8.721759E+11
              (01,50,08)  8.334064E-03 0.000000E+00 1.103838E-01 7.628996E-01
    21579    29 23:18:00  9.806722E-04 4.919387E+02 4.919396E+02 8.721760E+11
              (01,50,08)  8.333972E-03 0.000000E+00 1.103613E-01 7.628430E-01
    21580    29 23:20:00  9.807030E-04 4.919387E+02 4.919397E+02 8.721762E+11
              (01,50,08)  8.333846E-03 0.000000E+00 1.103385E-01 7.627846E-01
    21581    29 23:22:00  9.807339E-04 4.919388E+02 4.919398E+02 8.721764E+11
              (01,50,08)  8.333684E-03 0.000000E+00 1.103153E-01 7.627241E-01
    21582    29 23:24:00  9.807648E-04 4.919388E+02 4.919398E+02 8.721766E+11
              (01,50,08)  8.333487E-03 0.000000E+00 1.102918E-01 7.626616E-01
    21583    29 23:26:00  9.807958E-04 4.919389E+02 4.919399E+02 8.721768E+11
              (01,50,08)  8.333261E-03 0.000000E+00 1.102681E-01 7.625971E-01
    21584    29 23:28:00  9.808268E-04 4.919390E+02 4.919400E+02 8.721769E+11
              (01,50,08)  8.333007E-03 0.000000E+00 1.102439E-01 7.625308E-01
    21585    29 23:30:00  9.808577E-04 4.919390E+02 4.919400E+02 8.721771E+11
              (01,50,08)  8.332723E-03 0.000000E+00 1.102194E-01 7.624626E-01
    21586    29 23:32:00  9.808886E-04 4.919391E+02 4.919401E+02 8.721773E+11
              (01,50,08)  8.332405E-03 0.000000E+00 1.101945E-01 7.623925E-01
    21587    29 23:34:00  9.809196E-04 4.919392E+02 4.919401E+02 8.721775E+11
              (01,50,08)  8.332051E-03 0.000000E+00 1.101693E-01 7.623204E-01
    21588    29 23:36:00  9.809505E-04 4.919392E+02 4.919402E+02 8.721777E+11
              (01,50,08)  8.331664E-03 0.000000E+00 1.101440E-01 7.622463E-01
    21589    29 23:38:00  9.809815E-04 4.919393E+02 4.919403E+02 8.721778E+11
              (01,50,08)  8.331252E-03 0.000000E+00 1.101184E-01 7.621704E-01
    21590    29 23:40:00  9.810124E-04 4.919393E+02 4.919403E+02 8.721780E+11
              (01,50,08)  8.330818E-03 0.000000E+00 1.100925E-01 7.620926E-01
    21591    29 23:42:00  9.810433E-04 4.919394E+02 4.919404E+02 8.721782E+11
              (01,50,08)  8.330360E-03 0.000000E+00 1.100661E-01 7.620130E-01
    21592    29 23:44:00  9.810743E-04 4.919395E+02 4.919405E+02 8.721784E+11
              (01,50,08)  8.329869E-03 0.000000E+00 1.100394E-01 7.619316E-01
    21593    29 23:46:00  9.811052E-04 4.919395E+02 4.919405E+02 8.721786E+11
              (01,50,08)  8.329348E-03 0.000000E+00 1.100125E-01 7.618482E-01
    21594    29 23:48:00  9.811361E-04 4.919396E+02 4.919406E+02 8.721787E+11
              (01,50,08)  8.328807E-03 0.000000E+00 1.099855E-01 7.617630E-01
    21595    29 23:50:00  9.811669E-04 4.919397E+02 4.919406E+02 8.721789E+11
              (01,50,08)  8.328248E-03 0.000000E+00 1.099580E-01 7.616759E-01
    21596    29 23:52:00  9.811978E-04 4.919397E+02 4.919407E+02 8.721791E+11
              (01,50,08)  8.327660E-03 0.000000E+00 1.099302E-01 7.615871E-01
    21597    29 23:54:00  9.812287E-04 4.919398E+02 4.919408E+02 8.721793E+11
              (01,50,08)  8.327037E-03 0.000000E+00 1.099023E-01 7.614966E-01
    21598    29 23:56:00  9.812595E-04 4.919399E+02 4.919408E+02 8.721795E+11
              (01,50,08)  8.326388E-03 0.000000E+00 1.098743E-01 7.614043E-01
    21599    29 23:58:00  9.812902E-04 4.919399E+02 4.919409E+02 8.721796E+11
              (01,50,08)  8.325725E-03 0.000000E+00 1.098462E-01 7.613102E-01
    21600    30 00:00:00  9.813209E-04 4.919400E+02 4.919410E+02 8.721798E+11
              (01,50,08)  8.325047E-03 0.000000E+00 1.098177E-01 7.612143E-01
      WRT_HIS   - wrote history  fields (Index=1,1) into time record = 0000061
      WRT_AVG   - wrote averaged fields into time record =             0000060
      WRT_RST   - wrote re-start fields (Index=1,1) into time record = 0000002

 Elapsed CPU time (seconds):

 Thread #  0 CPU:    2147.099
 Total:              2147.099

 Nonlinear model elapsed time profile:

  Allocation and array initialization ..............         0.008  ( 0.0004 %)
  Ocean state initialization .......................         0.001  ( 0.0000 %)
  Reading of input data ............................         0.011  ( 0.0005 %)
  Processing of input data .........................         0.680  ( 0.0317 %)
  Processing of output time averaged data ..........        10.603  ( 0.4938 %)
  Computation of vertical boundary conditions ......         1.419  ( 0.0661 %)
  Computation of global information integrals ......        22.296  ( 1.0384 %)
  Writing of output data ...........................         1.141  ( 0.0531 %)
  Model 2D kernel ..................................       517.876  (24.1198 %)
  2D/3D coupling, vertical metrics .................        16.007  ( 0.7455 %)
  Omega vertical velocity ..........................        10.856  ( 0.5056 %)
  Equation of state for seawater ...................        33.188  ( 1.5457 %)
  3D equations right-side terms ....................        52.905  ( 2.4640 %)
  3D equations predictor step ......................        70.283  ( 3.2734 %)
  Pressure gradient ................................        61.003  ( 2.8412 %)
  Harmonic mixing of tracers, S-surfaces ...........        26.666  ( 1.2420 %)
  Harmonic stress tensor, geopotentials ............       187.953  ( 8.7538 %)
  Corrector time-step for 3D momentum ..............        68.965  ( 3.2120 %)
  Corrector time-step for tracers ..................      1051.267  (48.9622 %)
                                              Total:      2133.129   99.3494

 All percentages are with respect to total time =         2147.099

 ROMS/TOMS - Output NetCDF summary for Grid 01:
             number of time records written in HISTORY file = 00000061
             number of time records written in RESTART file = 00000002
             number of time records written in AVERAGE file = 00000060

 Analytical header files used:

     ROMS/Functionals/ana_btflux.h
     ROMS/Functionals/ana_grid.h
     ROMS/Functionals/ana_initial.h
     ROMS/Functionals/ana_mask.h
     ROMS/Functionals/ana_psource.h
     ROMS/Functionals/ana_smflux.h
     ROMS/Functionals/ana_stflux.h

 ROMS/TOMS: DONE... Tuesday - September 6, 2011 -  3:31:41 AM
